version 2
run General-0-20161216-09:28:49-5972
attr configname General
attr datetime 20161216-09:28:49
attr experiment General
attr inifile "D:\\desenvolvimento\\omnet\\omnetpp-5.0\\samples\\inet\\src\\inet\\applications\\simbo\\Simulation\\Quinto\\net2.ini"
attr iterationvars ""
attr iterationvars2 $repetition=0
attr measurement ""
attr network net2
attr processid 5972
attr repetition 0
attr replication #0
attr resultdir results
attr runnumber 0
attr seedset 0
param **.comp1[*].numTcpApps 2
param **.comp1[*].tcpApp[0].connectAddress "\"server\""
param **.comp1[*].tcpApp[0].connectPort 80
param **.comp1[*].tcpApp[0].dataTransferMode "\"object\""
param **.comp1[*].tcpApp[0].idleInterval 0.5s
param **.comp1[*].tcpApp[0].numRequestsPerSession 1
param **.comp1[*].tcpApp[0].reconnectInterval 0.2s
param **.comp1[*].tcpApp[0].replyLength exponential(2000B)
param **.comp1[*].tcpApp[0].requestLength truncnormal(350B,20B)
param **.comp1[*].tcpApp[0].thinkTime 0.1s
param **.comp1[*].tcpApp[0].typename "\"TCPBasicClientApp\""
param **.comp1[*].tcpApp[1].connectPort 10022
param **.comp1[*].tcpApp[1].dataTransferMode "\"object\""
param **.comp1[*].tcpApp[1].infectado false
param **.comp1[*].tcpApp[1].typename "\"BotnetApp\""
param **.comp[*].numTcpApps 2
param **.comp[*].tcpApp[0].connectAddress "\"server\""
param **.comp[*].tcpApp[0].connectPort 80
param **.comp[*].tcpApp[0].dataTransferMode "\"object\""
param **.comp[*].tcpApp[0].idleInterval 0.5s
param **.comp[*].tcpApp[0].numRequestsPerSession 1
param **.comp[*].tcpApp[0].reconnectInterval 0.2s
param **.comp[*].tcpApp[0].replyLength exponential(2000B)
param **.comp[*].tcpApp[0].requestLength truncnormal(350B,20B)
param **.comp[*].tcpApp[0].thinkTime 0.1s
param **.comp[*].tcpApp[0].typename "\"TCPBasicClientApp\""
param **.comp[*].tcpApp[1].connectPort 10022
param **.comp[*].tcpApp[1].dataTransferMode "\"object\""
param **.comp[*].tcpApp[1].infectado false
param **.comp[*].tcpApp[1].typename "\"BotnetApp\""
param **.controleSuper.jacamo false
param **.controleSuper.matlab true
param **.inicial.numTcpApps 2
param **.inicial.tcpApp[0].connectAddress "\"server\""
param **.inicial.tcpApp[0].connectPort 80
param **.inicial.tcpApp[0].dataTransferMode "\"object\""
param **.inicial.tcpApp[0].idleInterval 0.5s
param **.inicial.tcpApp[0].numRequestsPerSession 1
param **.inicial.tcpApp[0].reconnectInterval 0.2s
param **.inicial.tcpApp[0].replyLength exponential(2000B)
param **.inicial.tcpApp[0].requestLength truncnormal(350B,20B)
param **.inicial.tcpApp[0].thinkTime 0.1s
param **.inicial.tcpApp[0].typename "\"TCPBasicClientApp\""
param **.inicial.tcpApp[1].connectPort 10022
param **.inicial.tcpApp[1].dataTransferMode "\"object\""
param **.inicial.tcpApp[1].infectado false
param **.inicial.tcpApp[1].typename "\"BotnetApp\""
param **.numPingApps 1
param **.pingApp[*].count 1
param **.pingApp[*].destAddr "\"*\""
param **.pingApp[*].hopLimit 2
param **.pingApp[*].sleepDuration 0s
param **.pingApp[*].startTime 0s
param **.pingApp[*].typename BotnetPing
param **.server.numTcpApps 2
param **.server.tcpApp[0].dataTransferMode "\"object\""
param **.server.tcpApp[0].localPort 80
param **.server.tcpApp[0].typename "\"TCPGenericSrvApp\""
param **.server.tcpApp[1].connectPort 10022
param **.server.tcpApp[1].dataTransferMode "\"object\""
param **.server.tcpApp[1].infectado false
param **.server.tcpApp[1].typename "\"BotnetApp\""
param **.tcp.advertisedWindow 65535
param **.tcp.delayedAcksEnabled false
param **.tcp.increasedIWEnabled false
param **.tcp.limitedTransmitEnabled false
param **.tcp.mss 500
param **.tcp.nagleEnabled true
param **.tcp.recordStats true
param **.tcp.sackSupport true
param **.tcp.tcpAlgorithmClass "\"TCPReno\""
param **.tcp.timestampSupport false
param **.tcp.windowScalingSupport false

vector 3  net2.inicial.tcpApp[0]  numActiveSessions:vector  ETV
attr interpolationmode  sample-hold
attr source  sum(connect)
attr title  "number of active sessions, vector"
vector 135  net2.comp[0].tcpApp[0]  numActiveSessions:vector  ETV
attr interpolationmode  sample-hold
attr source  sum(connect)
attr title  "number of active sessions, vector"
vector 177  net2.comp[1].tcpApp[0]  numActiveSessions:vector  ETV
attr interpolationmode  sample-hold
attr source  sum(connect)
attr title  "number of active sessions, vector"
vector 219  net2.comp[2].tcpApp[0]  numActiveSessions:vector  ETV
attr interpolationmode  sample-hold
attr source  sum(connect)
attr title  "number of active sessions, vector"
vector 326  net2.comp1[0].tcpApp[0]  numActiveSessions:vector  ETV
attr interpolationmode  sample-hold
attr source  sum(connect)
attr title  "number of active sessions, vector"
vector 356  net2.comp1[1].tcpApp[0]  numActiveSessions:vector  ETV
attr interpolationmode  sample-hold
attr source  sum(connect)
attr title  "number of active sessions, vector"
vector 590  net2.inicial.tcp  tcpRcvQueueBytes  ETV
vector 577  net2.inicial.tcp  "advertised window"  ETV
vector 576  net2.inicial.tcp  "receive window"  ETV
vector 579  net2.inicial.tcp  "sent ack"  ETV
vector 614  net2.comp[0].tcp  tcpRcvQueueBytes  ETV
vector 601  net2.comp[0].tcp  "advertised window"  ETV
vector 600  net2.comp[0].tcp  "receive window"  ETV
vector 603  net2.comp[0].tcp  "sent ack"  ETV
vector 638  net2.comp[1].tcp  tcpRcvQueueBytes  ETV
vector 625  net2.comp[1].tcp  "advertised window"  ETV
vector 624  net2.comp[1].tcp  "receive window"  ETV
vector 627  net2.comp[1].tcp  "sent ack"  ETV
vector 662  net2.comp[2].tcp  tcpRcvQueueBytes  ETV
vector 649  net2.comp[2].tcp  "advertised window"  ETV
vector 648  net2.comp[2].tcp  "receive window"  ETV
vector 651  net2.comp[2].tcp  "sent ack"  ETV
vector 686  net2.comp1[0].tcp  tcpRcvQueueBytes  ETV
vector 673  net2.comp1[0].tcp  "advertised window"  ETV
vector 672  net2.comp1[0].tcp  "receive window"  ETV
vector 675  net2.comp1[0].tcp  "sent ack"  ETV
vector 710  net2.comp1[1].tcp  tcpRcvQueueBytes  ETV
vector 697  net2.comp1[1].tcp  "advertised window"  ETV
vector 696  net2.comp1[1].tcp  "receive window"  ETV
vector 699  net2.comp1[1].tcp  "sent ack"  ETV
vector 13  net2.inicial.networkLayer.arp  sentReq:vector  ETV
attr title  "ARP request sent, vector"
vector 145  net2.comp[0].networkLayer.arp  sentReq:vector  ETV
attr title  "ARP request sent, vector"
vector 187  net2.comp[1].networkLayer.arp  sentReq:vector  ETV
attr title  "ARP request sent, vector"
vector 229  net2.comp[2].networkLayer.arp  sentReq:vector  ETV
attr title  "ARP request sent, vector"
vector 336  net2.comp1[0].networkLayer.arp  sentReq:vector  ETV
attr title  "ARP request sent, vector"
vector 366  net2.comp1[1].networkLayer.arp  sentReq:vector  ETV
attr title  "ARP request sent, vector"
vector 27  net2.inicial.eth[0].encap  encapPk:vector(packetBytes)  ETV
attr interpolationmode  none
attr source  encapPk
attr title  "packets encapsulated, vector(packetBytes)"
vector 159  net2.comp[0].eth[0].encap  encapPk:vector(packetBytes)  ETV
attr interpolationmode  none
attr source  encapPk
attr title  "packets encapsulated, vector(packetBytes)"
vector 201  net2.comp[1].eth[0].encap  encapPk:vector(packetBytes)  ETV
attr interpolationmode  none
attr source  encapPk
attr title  "packets encapsulated, vector(packetBytes)"
vector 243  net2.comp[2].eth[0].encap  encapPk:vector(packetBytes)  ETV
attr interpolationmode  none
attr source  encapPk
attr title  "packets encapsulated, vector(packetBytes)"
vector 350  net2.comp1[0].eth[0].encap  encapPk:vector(packetBytes)  ETV
attr interpolationmode  none
attr source  encapPk
attr title  "packets encapsulated, vector(packetBytes)"
vector 380  net2.comp1[1].eth[0].encap  encapPk:vector(packetBytes)  ETV
attr interpolationmode  none
attr source  encapPk
attr title  "packets encapsulated, vector(packetBytes)"
vector 23  net2.inicial.eth[0].mac  rxPkFromHL:vector(packetBytes)  ETV
attr interpolationmode  none
attr source  rxPkFromHL
attr title  "packet bytes from higher layer, vector(packetBytes)"
vector 155  net2.comp[0].eth[0].mac  rxPkFromHL:vector(packetBytes)  ETV
attr interpolationmode  none
attr source  rxPkFromHL
attr title  "packet bytes from higher layer, vector(packetBytes)"
vector 197  net2.comp[1].eth[0].mac  rxPkFromHL:vector(packetBytes)  ETV
attr interpolationmode  none
attr source  rxPkFromHL
attr title  "packet bytes from higher layer, vector(packetBytes)"
vector 239  net2.comp[2].eth[0].mac  rxPkFromHL:vector(packetBytes)  ETV
attr interpolationmode  none
attr source  rxPkFromHL
attr title  "packet bytes from higher layer, vector(packetBytes)"
vector 346  net2.comp1[0].eth[0].mac  rxPkFromHL:vector(packetBytes)  ETV
attr interpolationmode  none
attr source  rxPkFromHL
attr title  "packet bytes from higher layer, vector(packetBytes)"
vector 376  net2.comp1[1].eth[0].mac  rxPkFromHL:vector(packetBytes)  ETV
attr interpolationmode  none
attr source  rxPkFromHL
attr title  "packet bytes from higher layer, vector(packetBytes)"
vector 18  net2.inicial.eth[0].mac  txPk:vector(packetBytes)  ETV
attr interpolationmode  none
attr source  txPk
attr title  "packets transmitted, vector(packetBytes)"
vector 150  net2.comp[0].eth[0].mac  txPk:vector(packetBytes)  ETV
attr interpolationmode  none
attr source  txPk
attr title  "packets transmitted, vector(packetBytes)"
vector 192  net2.comp[1].eth[0].mac  txPk:vector(packetBytes)  ETV
attr interpolationmode  none
attr source  txPk
attr title  "packets transmitted, vector(packetBytes)"
vector 234  net2.comp[2].eth[0].mac  txPk:vector(packetBytes)  ETV
attr interpolationmode  none
attr source  txPk
attr title  "packets transmitted, vector(packetBytes)"
vector 341  net2.comp1[0].eth[0].mac  txPk:vector(packetBytes)  ETV
attr interpolationmode  none
attr source  txPk
attr title  "packets transmitted, vector(packetBytes)"
vector 371  net2.comp1[1].eth[0].mac  txPk:vector(packetBytes)  ETV
attr interpolationmode  none
attr source  txPk
attr title  "packets transmitted, vector(packetBytes)"
vector 302  net2.etherSwitch.eth[5].mac  rxPkOk:vector(packetBytes)  ETV
attr interpolationmode  none
attr source  rxPkOk
attr title  "packets received OK, vector(packetBytes)"
vector 303  net2.etherSwitch.eth[5].mac  passedUpPk:vector(packetBytes)  ETV
attr interpolationmode  none
attr source  packetSentToUpper
attr title  "packets passed to higher layer, vector(packetBytes)"
vector 247  net2.etherSwitch.eth[0].mac  rxPkOk:vector(packetBytes)  ETV
attr interpolationmode  none
attr source  rxPkOk
attr title  "packets received OK, vector(packetBytes)"
vector 248  net2.etherSwitch.eth[0].mac  passedUpPk:vector(packetBytes)  ETV
attr interpolationmode  none
attr source  packetSentToUpper
attr title  "packets passed to higher layer, vector(packetBytes)"
vector 258  net2.etherSwitch.eth[1].mac  rxPkOk:vector(packetBytes)  ETV
attr interpolationmode  none
attr source  rxPkOk
attr title  "packets received OK, vector(packetBytes)"
vector 259  net2.etherSwitch.eth[1].mac  passedUpPk:vector(packetBytes)  ETV
attr interpolationmode  none
attr source  packetSentToUpper
attr title  "packets passed to higher layer, vector(packetBytes)"
vector 269  net2.etherSwitch.eth[2].mac  rxPkOk:vector(packetBytes)  ETV
attr interpolationmode  none
attr source  rxPkOk
attr title  "packets received OK, vector(packetBytes)"
vector 270  net2.etherSwitch.eth[2].mac  passedUpPk:vector(packetBytes)  ETV
attr interpolationmode  none
attr source  packetSentToUpper
attr title  "packets passed to higher layer, vector(packetBytes)"
vector 60  net2.switch.eth[0].mac  rxPkOk:vector(packetBytes)  ETV
attr interpolationmode  none
attr source  rxPkOk
attr title  "packets received OK, vector(packetBytes)"
vector 61  net2.switch.eth[0].mac  passedUpPk:vector(packetBytes)  ETV
attr interpolationmode  none
attr source  packetSentToUpper
attr title  "packets passed to higher layer, vector(packetBytes)"
vector 71  net2.switch.eth[1].mac  rxPkOk:vector(packetBytes)  ETV
attr interpolationmode  none
attr source  rxPkOk
attr title  "packets received OK, vector(packetBytes)"
vector 72  net2.switch.eth[1].mac  passedUpPk:vector(packetBytes)  ETV
attr interpolationmode  none
attr source  packetSentToUpper
attr title  "packets passed to higher layer, vector(packetBytes)"
vector 251  net2.etherSwitch.eth[0].mac  rxPkFromHL:vector(packetBytes)  ETV
attr interpolationmode  none
attr source  rxPkFromHL
attr title  "packet bytes from higher layer, vector(packetBytes)"
vector 262  net2.etherSwitch.eth[1].mac  rxPkFromHL:vector(packetBytes)  ETV
attr interpolationmode  none
attr source  rxPkFromHL
attr title  "packet bytes from higher layer, vector(packetBytes)"
vector 273  net2.etherSwitch.eth[2].mac  rxPkFromHL:vector(packetBytes)  ETV
attr interpolationmode  none
attr source  rxPkFromHL
attr title  "packet bytes from higher layer, vector(packetBytes)"
vector 284  net2.etherSwitch.eth[3].mac  rxPkFromHL:vector(packetBytes)  ETV
attr interpolationmode  none
attr source  rxPkFromHL
attr title  "packet bytes from higher layer, vector(packetBytes)"
vector 295  net2.etherSwitch.eth[4].mac  rxPkFromHL:vector(packetBytes)  ETV
attr interpolationmode  none
attr source  rxPkFromHL
attr title  "packet bytes from higher layer, vector(packetBytes)"
vector 317  net2.etherSwitch.eth[6].mac  rxPkFromHL:vector(packetBytes)  ETV
attr interpolationmode  none
attr source  rxPkFromHL
attr title  "packet bytes from higher layer, vector(packetBytes)"
vector 306  net2.etherSwitch.eth[5].mac  rxPkFromHL:vector(packetBytes)  ETV
attr interpolationmode  none
attr source  rxPkFromHL
attr title  "packet bytes from higher layer, vector(packetBytes)"
vector 75  net2.switch.eth[1].mac  rxPkFromHL:vector(packetBytes)  ETV
attr interpolationmode  none
attr source  rxPkFromHL
attr title  "packet bytes from higher layer, vector(packetBytes)"
vector 86  net2.switch.eth[2].mac  rxPkFromHL:vector(packetBytes)  ETV
attr interpolationmode  none
attr source  rxPkFromHL
attr title  "packet bytes from higher layer, vector(packetBytes)"
vector 97  net2.switch.eth[3].mac  rxPkFromHL:vector(packetBytes)  ETV
attr interpolationmode  none
attr source  rxPkFromHL
attr title  "packet bytes from higher layer, vector(packetBytes)"
vector 64  net2.switch.eth[0].mac  rxPkFromHL:vector(packetBytes)  ETV
attr interpolationmode  none
attr source  rxPkFromHL
attr title  "packet bytes from higher layer, vector(packetBytes)"
vector 279  net2.etherSwitch.eth[3].mac  txPk:vector(packetBytes)  ETV
attr interpolationmode  none
attr source  txPk
attr title  "packets transmitted, vector(packetBytes)"
vector 290  net2.etherSwitch.eth[4].mac  txPk:vector(packetBytes)  ETV
attr interpolationmode  none
attr source  txPk
attr title  "packets transmitted, vector(packetBytes)"
vector 312  net2.etherSwitch.eth[6].mac  txPk:vector(packetBytes)  ETV
attr interpolationmode  none
attr source  txPk
attr title  "packets transmitted, vector(packetBytes)"
vector 81  net2.switch.eth[2].mac  txPk:vector(packetBytes)  ETV
attr interpolationmode  none
attr source  txPk
attr title  "packets transmitted, vector(packetBytes)"
vector 92  net2.switch.eth[3].mac  txPk:vector(packetBytes)  ETV
attr interpolationmode  none
attr source  txPk
attr title  "packets transmitted, vector(packetBytes)"
vector 163  net2.comp[0].eth[1].mac  rxPkOk:vector(packetBytes)  ETV
attr interpolationmode  none
attr source  rxPkOk
attr title  "packets received OK, vector(packetBytes)"
vector 164  net2.comp[0].eth[1].mac  passedUpPk:vector(packetBytes)  ETV
attr interpolationmode  none
attr source  packetSentToUpper
attr title  "packets passed to higher layer, vector(packetBytes)"
vector 205  net2.comp[1].eth[1].mac  rxPkOk:vector(packetBytes)  ETV
attr interpolationmode  none
attr source  rxPkOk
attr title  "packets received OK, vector(packetBytes)"
vector 206  net2.comp[1].eth[1].mac  passedUpPk:vector(packetBytes)  ETV
attr interpolationmode  none
attr source  packetSentToUpper
attr title  "packets passed to higher layer, vector(packetBytes)"
vector 36  net2.R1.eth[0].mac  rxPkOk:vector(packetBytes)  ETV
attr interpolationmode  none
attr source  rxPkOk
attr title  "packets received OK, vector(packetBytes)"
vector 37  net2.R1.eth[0].mac  passedUpPk:vector(packetBytes)  ETV
attr interpolationmode  none
attr source  packetSentToUpper
attr title  "packets passed to higher layer, vector(packetBytes)"
vector 121  net2.server.eth[0].mac  rxPkOk:vector(packetBytes)  ETV
attr interpolationmode  none
attr source  rxPkOk
attr title  "packets received OK, vector(packetBytes)"
vector 122  net2.server.eth[0].mac  passedUpPk:vector(packetBytes)  ETV
attr interpolationmode  none
attr source  packetSentToUpper
attr title  "packets passed to higher layer, vector(packetBytes)"
vector 48  net2.R1.eth[1].mac  rxPkOk:vector(packetBytes)  ETV
attr interpolationmode  none
attr source  rxPkOk
attr title  "packets received OK, vector(packetBytes)"
vector 49  net2.R1.eth[1].mac  passedUpPk:vector(packetBytes)  ETV
attr interpolationmode  none
attr source  packetSentToUpper
attr title  "packets passed to higher layer, vector(packetBytes)"
vector 172  net2.comp[0].eth[1].encap  decapPk:vector(packetBytes)  ETV
attr interpolationmode  none
attr source  decapPk
attr title  "packets decapsulated, vector(packetBytes)"
vector 214  net2.comp[1].eth[1].encap  decapPk:vector(packetBytes)  ETV
attr interpolationmode  none
attr source  decapPk
attr title  "packets decapsulated, vector(packetBytes)"
vector 45  net2.R1.eth[0].encap  decapPk:vector(packetBytes)  ETV
attr interpolationmode  none
attr source  decapPk
attr title  "packets decapsulated, vector(packetBytes)"
vector 130  net2.server.eth[0].encap  decapPk:vector(packetBytes)  ETV
attr interpolationmode  none
attr source  decapPk
attr title  "packets decapsulated, vector(packetBytes)"
vector 57  net2.R1.eth[1].encap  decapPk:vector(packetBytes)  ETV
attr interpolationmode  none
attr source  decapPk
attr title  "packets decapsulated, vector(packetBytes)"
vector 31  net2.R1.networkLayer.arp  sentReply:vector  ETV
attr title  "ARP replies sent, vector"
vector 116  net2.server.networkLayer.arp  sentReply:vector  ETV
attr title  "ARP replies sent, vector"
vector 44  net2.R1.eth[0].encap  encapPk:vector(packetBytes)  ETV
attr interpolationmode  none
attr source  encapPk
attr title  "packets encapsulated, vector(packetBytes)"
vector 129  net2.server.eth[0].encap  encapPk:vector(packetBytes)  ETV
attr interpolationmode  none
attr source  encapPk
attr title  "packets encapsulated, vector(packetBytes)"
vector 40  net2.R1.eth[0].mac  rxPkFromHL:vector(packetBytes)  ETV
attr interpolationmode  none
attr source  rxPkFromHL
attr title  "packet bytes from higher layer, vector(packetBytes)"
vector 125  net2.server.eth[0].mac  rxPkFromHL:vector(packetBytes)  ETV
attr interpolationmode  none
attr source  rxPkFromHL
attr title  "packet bytes from higher layer, vector(packetBytes)"
vector 301  net2.etherSwitch.eth[5].mac  txPk:vector(packetBytes)  ETV
attr interpolationmode  none
attr source  txPk
attr title  "packets transmitted, vector(packetBytes)"
vector 246  net2.etherSwitch.eth[0].mac  txPk:vector(packetBytes)  ETV
attr interpolationmode  none
attr source  txPk
attr title  "packets transmitted, vector(packetBytes)"
vector 257  net2.etherSwitch.eth[1].mac  txPk:vector(packetBytes)  ETV
attr interpolationmode  none
attr source  txPk
attr title  "packets transmitted, vector(packetBytes)"
vector 268  net2.etherSwitch.eth[2].mac  txPk:vector(packetBytes)  ETV
attr interpolationmode  none
attr source  txPk
attr title  "packets transmitted, vector(packetBytes)"
vector 59  net2.switch.eth[0].mac  txPk:vector(packetBytes)  ETV
attr interpolationmode  none
attr source  txPk
attr title  "packets transmitted, vector(packetBytes)"
vector 70  net2.switch.eth[1].mac  txPk:vector(packetBytes)  ETV
attr interpolationmode  none
attr source  txPk
attr title  "packets transmitted, vector(packetBytes)"
vector 19  net2.inicial.eth[0].mac  rxPkOk:vector(packetBytes)  ETV
attr interpolationmode  none
attr source  rxPkOk
attr title  "packets received OK, vector(packetBytes)"
vector 20  net2.inicial.eth[0].mac  passedUpPk:vector(packetBytes)  ETV
attr interpolationmode  none
attr source  packetSentToUpper
attr title  "packets passed to higher layer, vector(packetBytes)"
vector 151  net2.comp[0].eth[0].mac  rxPkOk:vector(packetBytes)  ETV
attr interpolationmode  none
attr source  rxPkOk
attr title  "packets received OK, vector(packetBytes)"
vector 152  net2.comp[0].eth[0].mac  passedUpPk:vector(packetBytes)  ETV
attr interpolationmode  none
attr source  packetSentToUpper
attr title  "packets passed to higher layer, vector(packetBytes)"
vector 193  net2.comp[1].eth[0].mac  rxPkOk:vector(packetBytes)  ETV
attr interpolationmode  none
attr source  rxPkOk
attr title  "packets received OK, vector(packetBytes)"
vector 194  net2.comp[1].eth[0].mac  passedUpPk:vector(packetBytes)  ETV
attr interpolationmode  none
attr source  packetSentToUpper
attr title  "packets passed to higher layer, vector(packetBytes)"
vector 235  net2.comp[2].eth[0].mac  rxPkOk:vector(packetBytes)  ETV
attr interpolationmode  none
attr source  rxPkOk
attr title  "packets received OK, vector(packetBytes)"
vector 236  net2.comp[2].eth[0].mac  passedUpPk:vector(packetBytes)  ETV
attr interpolationmode  none
attr source  packetSentToUpper
attr title  "packets passed to higher layer, vector(packetBytes)"
vector 342  net2.comp1[0].eth[0].mac  rxPkOk:vector(packetBytes)  ETV
attr interpolationmode  none
attr source  rxPkOk
attr title  "packets received OK, vector(packetBytes)"
vector 343  net2.comp1[0].eth[0].mac  passedUpPk:vector(packetBytes)  ETV
attr interpolationmode  none
attr source  packetSentToUpper
attr title  "packets passed to higher layer, vector(packetBytes)"
vector 372  net2.comp1[1].eth[0].mac  rxPkOk:vector(packetBytes)  ETV
attr interpolationmode  none
attr source  rxPkOk
attr title  "packets received OK, vector(packetBytes)"
vector 373  net2.comp1[1].eth[0].mac  passedUpPk:vector(packetBytes)  ETV
attr interpolationmode  none
attr source  packetSentToUpper
attr title  "packets passed to higher layer, vector(packetBytes)"
vector 28  net2.inicial.eth[0].encap  decapPk:vector(packetBytes)  ETV
attr interpolationmode  none
attr source  decapPk
attr title  "packets decapsulated, vector(packetBytes)"
vector 160  net2.comp[0].eth[0].encap  decapPk:vector(packetBytes)  ETV
attr interpolationmode  none
attr source  decapPk
attr title  "packets decapsulated, vector(packetBytes)"
vector 202  net2.comp[1].eth[0].encap  decapPk:vector(packetBytes)  ETV
attr interpolationmode  none
attr source  decapPk
attr title  "packets decapsulated, vector(packetBytes)"
vector 244  net2.comp[2].eth[0].encap  decapPk:vector(packetBytes)  ETV
attr interpolationmode  none
attr source  decapPk
attr title  "packets decapsulated, vector(packetBytes)"
vector 351  net2.comp1[0].eth[0].encap  decapPk:vector(packetBytes)  ETV
attr interpolationmode  none
attr source  decapPk
attr title  "packets decapsulated, vector(packetBytes)"
vector 381  net2.comp1[1].eth[0].encap  decapPk:vector(packetBytes)  ETV
attr interpolationmode  none
attr source  decapPk
attr title  "packets decapsulated, vector(packetBytes)"
vector 35  net2.R1.eth[0].mac  txPk:vector(packetBytes)  ETV
attr interpolationmode  none
attr source  txPk
attr title  "packets transmitted, vector(packetBytes)"
vector 120  net2.server.eth[0].mac  txPk:vector(packetBytes)  ETV
attr interpolationmode  none
attr source  txPk
attr title  "packets transmitted, vector(packetBytes)"
vector 313  net2.etherSwitch.eth[6].mac  rxPkOk:vector(packetBytes)  ETV
attr interpolationmode  none
attr source  rxPkOk
attr title  "packets received OK, vector(packetBytes)"
vector 314  net2.etherSwitch.eth[6].mac  passedUpPk:vector(packetBytes)  ETV
attr interpolationmode  none
attr source  packetSentToUpper
attr title  "packets passed to higher layer, vector(packetBytes)"
vector 82  net2.switch.eth[2].mac  rxPkOk:vector(packetBytes)  ETV
attr interpolationmode  none
attr source  rxPkOk
attr title  "packets received OK, vector(packetBytes)"
vector 83  net2.switch.eth[2].mac  passedUpPk:vector(packetBytes)  ETV
attr interpolationmode  none
attr source  packetSentToUpper
attr title  "packets passed to higher layer, vector(packetBytes)"
vector 412  net2.server.tcp  "rcvd seq"  ETV
vector 413  net2.server.tcp  "rcvd ack"  ETV
vector 409  net2.server.tcp  "advertised window"  ETV
vector 407  net2.server.tcp  "send window"  ETV
vector 422  net2.server.tcp  tcpRcvQueueBytes  ETV
vector 408  net2.server.tcp  "receive window"  ETV
vector 411  net2.server.tcp  "sent ack"  ETV
vector 724  net2.server.tcp  "rcvd seq"  ETV
vector 725  net2.server.tcp  "rcvd ack"  ETV
vector 721  net2.server.tcp  "advertised window"  ETV
vector 719  net2.server.tcp  "send window"  ETV
vector 734  net2.server.tcp  tcpRcvQueueBytes  ETV
vector 720  net2.server.tcp  "receive window"  ETV
vector 723  net2.server.tcp  "sent ack"  ETV
vector 30  net2.R1.networkLayer.arp  sentReq:vector  ETV
attr title  "ARP request sent, vector"
vector 56  net2.R1.eth[1].encap  encapPk:vector(packetBytes)  ETV
attr interpolationmode  none
attr source  encapPk
attr title  "packets encapsulated, vector(packetBytes)"
vector 52  net2.R1.eth[1].mac  rxPkFromHL:vector(packetBytes)  ETV
attr interpolationmode  none
attr source  rxPkFromHL
attr title  "packet bytes from higher layer, vector(packetBytes)"
vector 676  net2.comp1[0].tcp  "rcvd seq"  ETV
vector 677  net2.comp1[0].tcp  "rcvd ack"  ETV
vector 671  net2.comp1[0].tcp  "send window"  ETV
vector 324  net2.comp1[0].tcpApp[0]  sentPk:vector(packetBytes)  ETV
attr interpolationmode  none
attr source  sentPk
attr title  "packets sent, vector(packetBytes)"
vector 674  net2.comp1[0].tcp  "sent seq"  ETV
vector 678  net2.comp1[0].tcp  "unacked bytes"  ETV
vector 47  net2.R1.eth[1].mac  txPk:vector(packetBytes)  ETV
attr interpolationmode  none
attr source  txPk
attr title  "packets transmitted, vector(packetBytes)"
vector 93  net2.switch.eth[3].mac  rxPkOk:vector(packetBytes)  ETV
attr interpolationmode  none
attr source  rxPkOk
attr title  "packets received OK, vector(packetBytes)"
vector 94  net2.switch.eth[3].mac  passedUpPk:vector(packetBytes)  ETV
attr interpolationmode  none
attr source  packetSentToUpper
attr title  "packets passed to higher layer, vector(packetBytes)"
vector 700  net2.comp1[1].tcp  "rcvd seq"  ETV
vector 701  net2.comp1[1].tcp  "rcvd ack"  ETV
vector 695  net2.comp1[1].tcp  "send window"  ETV
vector 354  net2.comp1[1].tcpApp[0]  sentPk:vector(packetBytes)  ETV
attr interpolationmode  none
attr source  sentPk
attr title  "packets sent, vector(packetBytes)"
vector 698  net2.comp1[1].tcp  "sent seq"  ETV
vector 702  net2.comp1[1].tcp  "unacked bytes"  ETV
vector 414  net2.server.tcp  "unacked bytes"  ETV
vector 726  net2.server.tcp  "unacked bytes"  ETV
vector 748  net2.server.tcp  "rcvd seq"  ETV
vector 749  net2.server.tcp  "rcvd ack"  ETV
vector 745  net2.server.tcp  "advertised window"  ETV
vector 743  net2.server.tcp  "send window"  ETV
vector 758  net2.server.tcp  tcpRcvQueueBytes  ETV
vector 744  net2.server.tcp  "receive window"  ETV
vector 747  net2.server.tcp  "sent ack"  ETV
vector 772  net2.server.tcp  "rcvd seq"  ETV
vector 773  net2.server.tcp  "rcvd ack"  ETV
vector 769  net2.server.tcp  "advertised window"  ETV
vector 767  net2.server.tcp  "send window"  ETV
vector 782  net2.server.tcp  tcpRcvQueueBytes  ETV
vector 768  net2.server.tcp  "receive window"  ETV
vector 771  net2.server.tcp  "sent ack"  ETV
vector 580  net2.inicial.tcp  "rcvd seq"  ETV
vector 581  net2.inicial.tcp  "rcvd ack"  ETV
vector 575  net2.inicial.tcp  "send window"  ETV
vector 1  net2.inicial.tcpApp[0]  sentPk:vector(packetBytes)  ETV
attr interpolationmode  none
attr source  sentPk
attr title  "packets sent, vector(packetBytes)"
vector 578  net2.inicial.tcp  "sent seq"  ETV
vector 582  net2.inicial.tcp  "unacked bytes"  ETV
vector 604  net2.comp[0].tcp  "rcvd seq"  ETV
vector 605  net2.comp[0].tcp  "rcvd ack"  ETV
vector 599  net2.comp[0].tcp  "send window"  ETV
vector 133  net2.comp[0].tcpApp[0]  sentPk:vector(packetBytes)  ETV
attr interpolationmode  none
attr source  sentPk
attr title  "packets sent, vector(packetBytes)"
vector 602  net2.comp[0].tcp  "sent seq"  ETV
vector 606  net2.comp[0].tcp  "unacked bytes"  ETV
vector 415  net2.server.tcp  "rcvd dupAcks"  ETV
vector 103  net2.server.tcpApp[0]  rcvdPk:vector(packetBytes)  ETV
attr interpolationmode  none
attr source  rcvdPk
attr title  "packets received, vector(packetBytes)"
vector 105  net2.server.tcpApp[0]  endToEndDelay:vector  ETV
attr interpolationmode  none
attr source  messageAge(rcvdPk)
attr title  "end-to-end delay, vector"
attr unit  s
vector 104  net2.server.tcpApp[0]  sentPk:vector(packetBytes)  ETV
attr interpolationmode  none
attr source  sentPk
attr title  "packets sent, vector(packetBytes)"
vector 410  net2.server.tcp  "sent seq"  ETV
vector 796  net2.server.tcp  "rcvd seq"  ETV
vector 797  net2.server.tcp  "rcvd ack"  ETV
vector 793  net2.server.tcp  "advertised window"  ETV
vector 791  net2.server.tcp  "send window"  ETV
vector 806  net2.server.tcp  tcpRcvQueueBytes  ETV
vector 792  net2.server.tcp  "receive window"  ETV
vector 795  net2.server.tcp  "sent ack"  ETV
vector 690  net2.comp1[0].tcp  "measured RTT"  ETV
vector 691  net2.comp1[0].tcp  "smoothed RTT"  ETV
vector 692  net2.comp1[0].tcp  RTTVAR  ETV
vector 693  net2.comp1[0].tcp  RTO  ETV
vector 688  net2.comp1[0].tcp  cwnd  ETV
vector 679  net2.comp1[0].tcp  "rcvd dupAcks"  ETV
vector 727  net2.server.tcp  "rcvd dupAcks"  ETV
vector 722  net2.server.tcp  "sent seq"  ETV
vector 820  net2.server.tcp  "rcvd seq"  ETV
vector 821  net2.server.tcp  "rcvd ack"  ETV
vector 817  net2.server.tcp  "advertised window"  ETV
vector 815  net2.server.tcp  "send window"  ETV
vector 830  net2.server.tcp  tcpRcvQueueBytes  ETV
vector 816  net2.server.tcp  "receive window"  ETV
vector 819  net2.server.tcp  "sent ack"  ETV
vector 750  net2.server.tcp  "unacked bytes"  ETV
vector 774  net2.server.tcp  "unacked bytes"  ETV
vector 714  net2.comp1[1].tcp  "measured RTT"  ETV
vector 715  net2.comp1[1].tcp  "smoothed RTT"  ETV
vector 716  net2.comp1[1].tcp  RTTVAR  ETV
vector 717  net2.comp1[1].tcp  RTO  ETV
vector 712  net2.comp1[1].tcp  cwnd  ETV
vector 703  net2.comp1[1].tcp  "rcvd dupAcks"  ETV
vector 628  net2.comp[1].tcp  "rcvd seq"  ETV
vector 629  net2.comp[1].tcp  "rcvd ack"  ETV
vector 623  net2.comp[1].tcp  "send window"  ETV
vector 175  net2.comp[1].tcpApp[0]  sentPk:vector(packetBytes)  ETV
attr interpolationmode  none
attr source  sentPk
attr title  "packets sent, vector(packetBytes)"
vector 626  net2.comp[1].tcp  "sent seq"  ETV
vector 630  net2.comp[1].tcp  "unacked bytes"  ETV
vector 751  net2.server.tcp  "rcvd dupAcks"  ETV
vector 746  net2.server.tcp  "sent seq"  ETV
vector 426  net2.server.tcp  "measured RTT"  ETV
vector 427  net2.server.tcp  "smoothed RTT"  ETV
vector 428  net2.server.tcp  RTTVAR  ETV
vector 429  net2.server.tcp  RTO  ETV
vector 424  net2.server.tcp  cwnd  ETV
vector 652  net2.comp[2].tcp  "rcvd seq"  ETV
vector 653  net2.comp[2].tcp  "rcvd ack"  ETV
vector 647  net2.comp[2].tcp  "send window"  ETV
vector 217  net2.comp[2].tcpApp[0]  sentPk:vector(packetBytes)  ETV
attr interpolationmode  none
attr source  sentPk
attr title  "packets sent, vector(packetBytes)"
vector 650  net2.comp[2].tcp  "sent seq"  ETV
vector 654  net2.comp[2].tcp  "unacked bytes"  ETV
vector 594  net2.inicial.tcp  "measured RTT"  ETV
vector 595  net2.inicial.tcp  "smoothed RTT"  ETV
vector 596  net2.inicial.tcp  RTTVAR  ETV
vector 597  net2.inicial.tcp  RTO  ETV
vector 592  net2.inicial.tcp  cwnd  ETV
vector 583  net2.inicial.tcp  "rcvd dupAcks"  ETV
vector 775  net2.server.tcp  "rcvd dupAcks"  ETV
vector 770  net2.server.tcp  "sent seq"  ETV
vector 798  net2.server.tcp  "unacked bytes"  ETV
vector 738  net2.server.tcp  "measured RTT"  ETV
vector 739  net2.server.tcp  "smoothed RTT"  ETV
vector 740  net2.server.tcp  RTTVAR  ETV
vector 741  net2.server.tcp  RTO  ETV
vector 736  net2.server.tcp  cwnd  ETV
vector 799  net2.server.tcp  "rcvd dupAcks"  ETV
vector 794  net2.server.tcp  "sent seq"  ETV
vector 822  net2.server.tcp  "unacked bytes"  ETV
vector 823  net2.server.tcp  "rcvd dupAcks"  ETV
vector 818  net2.server.tcp  "sent seq"  ETV
vector 618  net2.comp[0].tcp  "measured RTT"  ETV
vector 619  net2.comp[0].tcp  "smoothed RTT"  ETV
vector 620  net2.comp[0].tcp  RTTVAR  ETV
vector 621  net2.comp[0].tcp  RTO  ETV
vector 616  net2.comp[0].tcp  cwnd  ETV
vector 607  net2.comp[0].tcp  "rcvd dupAcks"  ETV
vector 762  net2.server.tcp  "measured RTT"  ETV
vector 763  net2.server.tcp  "smoothed RTT"  ETV
vector 764  net2.server.tcp  RTTVAR  ETV
vector 765  net2.server.tcp  RTO  ETV
vector 760  net2.server.tcp  cwnd  ETV
vector 642  net2.comp[1].tcp  "measured RTT"  ETV
vector 643  net2.comp[1].tcp  "smoothed RTT"  ETV
vector 644  net2.comp[1].tcp  RTTVAR  ETV
vector 645  net2.comp[1].tcp  RTO  ETV
vector 640  net2.comp[1].tcp  cwnd  ETV
vector 631  net2.comp[1].tcp  "rcvd dupAcks"  ETV
vector 786  net2.server.tcp  "measured RTT"  ETV
vector 787  net2.server.tcp  "smoothed RTT"  ETV
vector 788  net2.server.tcp  RTTVAR  ETV
vector 789  net2.server.tcp  RTO  ETV
vector 784  net2.server.tcp  cwnd  ETV
vector 666  net2.comp[2].tcp  "measured RTT"  ETV
vector 667  net2.comp[2].tcp  "smoothed RTT"  ETV
vector 668  net2.comp[2].tcp  RTTVAR  ETV
vector 669  net2.comp[2].tcp  RTO  ETV
vector 664  net2.comp[2].tcp  cwnd  ETV
vector 655  net2.comp[2].tcp  "rcvd dupAcks"  ETV
vector 810  net2.server.tcp  "measured RTT"  ETV
vector 811  net2.server.tcp  "smoothed RTT"  ETV
vector 812  net2.server.tcp  RTTVAR  ETV
vector 813  net2.server.tcp  RTO  ETV
vector 808  net2.server.tcp  cwnd  ETV
vector 323  net2.comp1[0].tcpApp[0]  rcvdPk:vector(packetBytes)  ETV
attr interpolationmode  none
attr source  rcvdPk
attr title  "packets received, vector(packetBytes)"
vector 325  net2.comp1[0].tcpApp[0]  endToEndDelay:vector  ETV
attr interpolationmode  none
attr source  messageAge(rcvdPk)
attr title  "end-to-end delay, vector"
attr unit  s
vector 834  net2.server.tcp  "measured RTT"  ETV
vector 835  net2.server.tcp  "smoothed RTT"  ETV
vector 836  net2.server.tcp  RTTVAR  ETV
vector 837  net2.server.tcp  RTO  ETV
vector 832  net2.server.tcp  cwnd  ETV
vector 0  net2.inicial.tcpApp[0]  rcvdPk:vector(packetBytes)  ETV
attr interpolationmode  none
attr source  rcvdPk
attr title  "packets received, vector(packetBytes)"
vector 2  net2.inicial.tcpApp[0]  endToEndDelay:vector  ETV
attr interpolationmode  none
attr source  messageAge(rcvdPk)
attr title  "end-to-end delay, vector"
attr unit  s
vector 132  net2.comp[0].tcpApp[0]  rcvdPk:vector(packetBytes)  ETV
attr interpolationmode  none
attr source  rcvdPk
attr title  "packets received, vector(packetBytes)"
vector 134  net2.comp[0].tcpApp[0]  endToEndDelay:vector  ETV
attr interpolationmode  none
attr source  messageAge(rcvdPk)
attr title  "end-to-end delay, vector"
attr unit  s
424	1052	1.0025426	1000
424	1290	1.0040386	1500
424	1368	1.0044886	2000
424	1673	1.0074646	2500
424	1751	1.007927	3000
424	1769	1.0079982	3500
424	2194	1.0117278	4000
426	1052	1.0025426	0.0013544
426	1290	1.0040386	0.001496
426	1673	1.0074646	0.003426
427	1052	1.0025426	0.0001693
427	1290	1.0040386	0.0003351375
427	1673	1.0074646	0.000721495313
428	1052	1.0025426	0.6564193
428	1290	1.0040386	0.574532725
428	1673	1.0074646	0.503102492188
429	1052	1.0025426	2.6258465
429	1290	1.0040386	2.2984660375
429	1673	1.0074646	2.013131464065
407	417	1.0003494	65535
407	598	1.0006278	65535
407	1052	1.0025426	65535
407	1290	1.0040386	65535
407	1368	1.0044886	65535
407	1673	1.0074646	65535
407	1751	1.007927	65535
407	1769	1.0079982	65535
407	2194	1.0117278	65535
408	417	1.0003494	65535
408	779	1.0011882	65535
408	782	1.0011882	65535
408	1052	1.0025426	65535
408	1052	1.0025426	65535
408	1290	1.0040386	65535
408	1290	1.0040386	65535
408	1368	1.0044886	65535
408	1796	1.0081326	65535
408	1800	1.0081326	65535
409	417	1.0003494	315536
409	417	1.0003494	315536
409	779	1.0011882	315864
409	782	1.0011882	315864
409	1052	1.0025426	315864
409	1052	1.0025426	315864
409	1290	1.0040386	315864
409	1290	1.0040386	315864
409	1368	1.0044886	315864
409	1796	1.0081326	315865
409	1800	1.0081326	315865
410	782	1.0011882	250088
410	1052	1.0025426	250588
410	1052	1.0025426	251088
410	1290	1.0040386	251588
410	1290	1.0040386	252088
410	1368	1.0044886	252588
411	417	1.0003494	250001
411	779	1.0011882	250329
411	782	1.0011882	250329
411	1052	1.0025426	250329
411	1052	1.0025426	250329
411	1290	1.0040386	250329
411	1290	1.0040386	250329
411	1368	1.0044886	250329
411	1796	1.0081326	250330
411	1800	1.0081326	250330
412	417	1.0003494	250000
412	598	1.0006278	250001
412	779	1.0011882	250001
412	1052	1.0025426	250329
412	1290	1.0040386	250329
412	1368	1.0044886	250329
412	1673	1.0074646	250329
412	1751	1.007927	250329
412	1769	1.0079982	250329
412	1796	1.0081326	250329
412	2194	1.0117278	250330
413	417	1.0003494	0
413	598	1.0006278	250088
413	779	1.0011882	250088
413	1052	1.0025426	250588
413	1290	1.0040386	251088
413	1368	1.0044886	251588
413	1673	1.0074646	252088
413	1751	1.007927	252588
413	1769	1.0079982	252599
413	1796	1.0081326	252599
413	2194	1.0117278	252600
414	598	1.0006278	0
414	782	1.0011882	500
414	1052	1.0025426	0
414	1052	1.0025426	1000
414	1290	1.0040386	500
414	1290	1.0040386	1500
414	1368	1.0044886	1000
414	1368	1.0044886	1011
414	1673	1.0074646	511
414	1751	1.007927	11
414	1769	1.0079982	0
414	1800	1.0081326	1
414	2194	1.0117278	0
415	779	1.0011882	0
415	1052	1.0025426	0
415	1290	1.0040386	0
415	1368	1.0044886	0
415	1673	1.0074646	0
415	1751	1.007927	0
415	1769	1.0079982	0
415	1796	1.0081326	0
415	2194	1.0117278	0
422	417	1.0003494	0
422	779	1.0011882	0
422	779	1.0011882	0
422	782	1.0011882	0
422	1052	1.0025426	0
422	1052	1.0025426	0
422	1290	1.0040386	0
422	1290	1.0040386	0
422	1368	1.0044886	0
422	1796	1.0081326	0
422	1800	1.0081326	0
vector 353  net2.comp1[1].tcpApp[0]  rcvdPk:vector(packetBytes)  ETV
attr interpolationmode  none
attr source  rcvdPk
attr title  "packets received, vector(packetBytes)"
vector 355  net2.comp1[1].tcpApp[0]  endToEndDelay:vector  ETV
attr interpolationmode  none
attr source  messageAge(rcvdPk)
attr title  "end-to-end delay, vector"
attr unit  s
vector 216  net2.comp[2].tcpApp[0]  rcvdPk:vector(packetBytes)  ETV
attr interpolationmode  none
attr source  rcvdPk
attr title  "packets received, vector(packetBytes)"
vector 218  net2.comp[2].tcpApp[0]  endToEndDelay:vector  ETV
attr interpolationmode  none
attr source  messageAge(rcvdPk)
attr title  "end-to-end delay, vector"
attr unit  s
760	1382	1.004585	1000
760	1949	1.0094908	1500
760	1989	1.0096258	2000
760	2577	1.0127858	2500
762	1382	1.004585	0.0021096
762	1949	1.0094908	0.0049058
763	1382	1.004585	0.0002637
763	1949	1.0094908	0.0008439625
764	1382	1.004585	0.6565137
764	1949	1.0094908	0.57502975
765	1382	1.004585	2.6263185
765	1949	1.0094908	2.3009629625
743	639	1.0007946	65535
743	874	1.0017106	65535
743	1382	1.004585	65535
743	1949	1.0094908	65535
743	1989	1.0096258	65535
743	2577	1.0127858	65535
744	639	1.0007946	65535
744	1021	1.0024754	65535
744	1024	1.0024754	65535
744	1382	1.004585	65535
744	1382	1.004585	65535
744	2001	1.009693	65535
744	2005	1.009693	65535
745	639	1.0007946	315536
745	639	1.0007946	315536
745	1021	1.0024754	315900
745	1024	1.0024754	315900
745	1382	1.004585	315900
745	1382	1.004585	315900
745	2001	1.009693	315901
745	2005	1.009693	315901
746	1024	1.0024754	250199
746	1382	1.004585	250699
746	1382	1.004585	251199
747	639	1.0007946	250001
747	1021	1.0024754	250365
747	1024	1.0024754	250365
747	1382	1.004585	250365
747	1382	1.004585	250365
747	2001	1.009693	250366
747	2005	1.009693	250366
748	639	1.0007946	250000
748	874	1.0017106	250001
748	1021	1.0024754	250001
748	1382	1.004585	250365
748	1949	1.0094908	250365
748	1989	1.0096258	250365
748	2001	1.009693	250365
748	2577	1.0127858	250366
749	639	1.0007946	0
749	874	1.0017106	250199
749	1021	1.0024754	250199
749	1382	1.004585	250699
749	1949	1.0094908	251199
749	1989	1.0096258	251301
749	2001	1.009693	251301
749	2577	1.0127858	251302
750	874	1.0017106	0
750	1024	1.0024754	500
750	1382	1.004585	0
750	1382	1.004585	602
750	1949	1.0094908	102
750	1989	1.0096258	0
750	2005	1.009693	1
750	2577	1.0127858	0
751	1021	1.0024754	0
751	1382	1.004585	0
751	1949	1.0094908	0
751	1989	1.0096258	0
751	2001	1.009693	0
751	2577	1.0127858	0
758	639	1.0007946	0
758	1021	1.0024754	0
758	1021	1.0024754	0
758	1024	1.0024754	0
758	1382	1.004585	0
758	1382	1.004585	0
758	2001	1.009693	0
758	2005	1.009693	0
784	1545	1.0060394	1000
784	2221	1.0118418	1500
784	2648	1.0129874	2000
786	1545	1.0060394	0.0031688
786	2221	1.0118418	0.0058024
787	1545	1.0060394	0.0003961
787	2221	1.0118418	0.0010718875
788	1545	1.0060394	0.6566461
788	2221	1.0118418	0.575241125
789	1545	1.0060394	2.6269805
789	2221	1.0118418	2.3020363875
767	667	1.0008634	65535
767	887	1.0017778	65535
767	1545	1.0060394	65535
767	2221	1.0118418	65535
767	2648	1.0129874	65535
768	667	1.0008634	65535
768	1137	1.0028706	65535
768	1140	1.0028706	65535
768	1545	1.0060394	65535
768	2239	1.011909	65535
768	2243	1.011909	65535
769	667	1.0008634	315536
769	667	1.0008634	315536
769	1137	1.0028706	315868
769	1140	1.0028706	315868
769	1545	1.0060394	315868
769	2239	1.011909	315869
769	2243	1.011909	315869
770	1140	1.0028706	250216
770	1545	1.0060394	250716
771	667	1.0008634	250001
771	1137	1.0028706	250333
771	1140	1.0028706	250333
771	1545	1.0060394	250333
771	2239	1.011909	250334
771	2243	1.011909	250334
772	667	1.0008634	250000
772	887	1.0017778	250001
772	1137	1.0028706	250001
772	1545	1.0060394	250333
772	2221	1.0118418	250333
772	2239	1.011909	250333
772	2648	1.0129874	250334
773	667	1.0008634	0
773	887	1.0017778	250216
773	1137	1.0028706	250216
773	1545	1.0060394	250716
773	2221	1.0118418	251186
773	2239	1.011909	251186
773	2648	1.0129874	251187
774	887	1.0017778	0
774	1140	1.0028706	500
774	1545	1.0060394	0
774	1545	1.0060394	470
774	2221	1.0118418	0
774	2243	1.011909	1
774	2648	1.0129874	0
775	1137	1.0028706	0
775	1545	1.0060394	0
775	2221	1.0118418	0
775	2239	1.011909	0
775	2648	1.0129874	0
782	667	1.0008634	0
782	1137	1.0028706	0
782	1137	1.0028706	0
782	1140	1.0028706	0
782	1545	1.0060394	0
782	2239	1.011909	0
782	2243	1.011909	0
736	1173	1.003005	1000
736	1443	1.0054806	1500
736	1521	1.005943	2000
736	1867	1.009067	2500
736	1969	1.009558	3000
736	2037	1.0099918	3500
736	2066	1.0104542	4000
736	2404	1.0124434	4500
736	2720	1.013599	5000
738	1173	1.003005	0.0014304
738	1443	1.0054806	0.0024756
738	1867	1.009067	0.0035864
738	2404	1.0124434	0.0033764
739	1173	1.003005	0.0001788
739	1443	1.0054806	0.0004659
739	1867	1.009067	0.0008559625
739	2404	1.0124434	0.001171017188
740	1173	1.003005	0.6564288
740	1443	1.0054806	0.5746623
740	1867	1.009067	0.503219575
740	2404	1.0124434	0.440632182813
741	1173	1.003005	2.625894
741	1443	1.0054806	2.2991151
741	1867	1.009067	2.0137342625
741	2404	1.0124434	1.76369974844
719	465	1.0004182	65535
719	625	1.000695	65535
719	1173	1.003005	65535
719	1443	1.0054806	65535
719	1521	1.005943	65535
719	1867	1.009067	65535
719	1969	1.009558	65535
719	2037	1.0099918	65535
719	2066	1.0104542	65535
719	2404	1.0124434	65535
719	2720	1.013599	65535
720	465	1.0004182	65535
720	847	1.0015746	65535
720	850	1.0015746	65535
720	1173	1.003005	65535
720	1173	1.003005	65535
720	1443	1.0054806	65535
720	1443	1.0054806	65535
720	1521	1.005943	65535
720	1521	1.005943	65535
720	1867	1.009067	65535
720	2440	1.0125106	65535
720	2444	1.0125106	65535
721	465	1.0004182	315536
721	465	1.0004182	315536
721	847	1.0015746	315855
721	850	1.0015746	315855
721	1173	1.003005	315855
721	1173	1.003005	315855
721	1443	1.0054806	315855
721	1443	1.0054806	315855
721	1521	1.005943	315855
721	1521	1.005943	315855
721	1867	1.009067	315855
721	2440	1.0125106	315856
721	2444	1.0125106	315856
722	850	1.0015746	250105
722	1173	1.003005	250605
722	1173	1.003005	251105
722	1443	1.0054806	251605
722	1443	1.0054806	252105
722	1521	1.005943	252605
722	1521	1.005943	253105
722	1867	1.009067	253605
723	465	1.0004182	250001
723	847	1.0015746	250320
723	850	1.0015746	250320
723	1173	1.003005	250320
723	1173	1.003005	250320
723	1443	1.0054806	250320
723	1443	1.0054806	250320
723	1521	1.005943	250320
723	1521	1.005943	250320
723	1867	1.009067	250320
723	2440	1.0125106	250321
723	2444	1.0125106	250321
724	465	1.0004182	250000
724	625	1.000695	250001
724	847	1.0015746	250001
724	1173	1.003005	250320
724	1443	1.0054806	250320
724	1521	1.005943	250320
724	1867	1.009067	250320
724	1969	1.009558	250320
724	2037	1.0099918	250320
724	2066	1.0104542	250320
724	2404	1.0124434	250320
724	2440	1.0125106	250320
724	2720	1.013599	250321
725	465	1.0004182	0
725	625	1.000695	250105
725	847	1.0015746	250105
725	1173	1.003005	250605
725	1443	1.0054806	251105
725	1521	1.005943	251605
725	1867	1.009067	252105
725	1969	1.009558	252605
725	2037	1.0099918	253105
725	2066	1.0104542	253605
725	2404	1.0124434	254008
725	2440	1.0125106	254008
725	2720	1.013599	254009
726	625	1.000695	0
726	850	1.0015746	500
726	1173	1.003005	0
726	1173	1.003005	1000
726	1443	1.0054806	500
726	1443	1.0054806	1500
726	1521	1.005943	1000
726	1521	1.005943	2000
726	1867	1.009067	1500
726	1867	1.009067	1903
726	1969	1.009558	1403
726	2037	1.0099918	903
726	2066	1.0104542	403
726	2404	1.0124434	0
726	2444	1.0125106	1
726	2720	1.013599	0
727	847	1.0015746	0
727	1173	1.003005	0
727	1443	1.0054806	0
727	1521	1.005943	0
727	1867	1.009067	0
727	1969	1.009558	0
727	2037	1.0099918	0
727	2066	1.0104542	0
727	2404	1.0124434	0
727	2440	1.0125106	0
727	2720	1.013599	0
734	465	1.0004182	0
734	847	1.0015746	0
734	847	1.0015746	0
734	850	1.0015746	0
734	1173	1.003005	0
734	1173	1.003005	0
734	1443	1.0054806	0
734	1443	1.0054806	0
734	1521	1.005943	0
734	1521	1.005943	0
734	1867	1.009067	0
734	2440	1.0125106	0
734	2444	1.0125106	0
832	1787	1.0080654	1000
832	2555	1.0127186	1500
832	2872	1.0146202	2000
834	1787	1.0080654	0.004094
834	2555	1.0127186	0.0046532
835	1787	1.0080654	0.00051175
835	2555	1.0127186	0.00102943125
836	1787	1.0080654	0.65676175
836	2555	1.0127186	0.5751842125
837	1787	1.0080654	2.62755875
837	2555	1.0127186	2.30176628125
815	861	1.0016434	65535
815	1215	1.003409	65535
815	1787	1.0080654	65535
815	2555	1.0127186	65535
815	2872	1.0146202	65535
816	861	1.0016434	65535
816	1269	1.0039714	65535
816	1272	1.0039714	65535
816	1787	1.0080654	65535
816	2604	1.012853	65535
816	2608	1.012853	65535
817	861	1.0016434	315536
817	861	1.0016434	315536
817	1269	1.0039714	315892
817	1272	1.0039714	315892
817	1787	1.0080654	315892
817	2604	1.012853	315893
817	2608	1.012853	315893
818	1272	1.0039714	250411
818	1787	1.0080654	250911
819	861	1.0016434	250001
819	1269	1.0039714	250357
819	1272	1.0039714	250357
819	1787	1.0080654	250357
819	2604	1.012853	250358
819	2608	1.012853	250358
820	861	1.0016434	250000
820	1215	1.003409	250001
820	1269	1.0039714	250001
820	1787	1.0080654	250357
820	2555	1.0127186	250357
820	2604	1.012853	250357
820	2872	1.0146202	250358
821	861	1.0016434	0
821	1215	1.003409	250411
821	1269	1.0039714	250411
821	1787	1.0080654	250911
821	2555	1.0127186	251047
821	2604	1.012853	251047
821	2872	1.0146202	251048
822	1215	1.003409	0
822	1272	1.0039714	500
822	1787	1.0080654	0
822	1787	1.0080654	136
822	2555	1.0127186	0
822	2608	1.012853	1
822	2872	1.0146202	0
823	1269	1.0039714	0
823	1787	1.0080654	0
823	2555	1.0127186	0
823	2604	1.012853	0
823	2872	1.0146202	0
830	861	1.0016434	0
830	1269	1.0039714	0
830	1269	1.0039714	0
830	1272	1.0039714	0
830	1787	1.0080654	0
830	2604	1.012853	0
830	2608	1.012853	0
vector 174  net2.comp[1].tcpApp[0]  rcvdPk:vector(packetBytes)  ETV
attr interpolationmode  none
attr source  rcvdPk
attr title  "packets received, vector(packetBytes)"
vector 176  net2.comp[1].tcpApp[0]  endToEndDelay:vector  ETV
attr interpolationmode  none
attr source  messageAge(rcvdPk)
attr title  "end-to-end delay, vector"
attr unit  s
808	1679	1.0075318	1000
808	2377	1.0123762	1500
808	2631	1.0129202	2000
808	2826	1.0144186	2500
808	2908	1.014881	3000
808	2983	1.0156122	3500
808	3032	1.0160746	4000
808	3073	1.016537	4500
808	3129	1.016957	5000
808	3234	1.017553	5500
810	1679	1.0075318	0.00419
810	2377	1.0123762	0.0048444
810	2826	1.0144186	0.0020424
810	3073	1.016537	0.0021184
811	1679	1.0075318	0.00052375
811	2377	1.0123762	0.00106383125
811	2826	1.0144186	0.001186152344
811	3073	1.016537	0.001302683301
812	1679	1.0075318	0.65677375
812	2377	1.0123762	0.5752171125
812	2826	1.0144186	0.503437294531
812	3073	1.016537	0.440624163672
813	1679	1.0075318	2.62761875
813	2377	1.0123762	2.30193228125
813	2826	1.0144186	2.014935330468
813	3073	1.016537	1.763799337989
791	814	1.001257	65535
791	1151	1.0029378	65535
791	1679	1.0075318	65535
791	2377	1.0123762	65535
791	2631	1.0129202	65535
791	2826	1.0144186	65535
791	2908	1.014881	65535
791	2983	1.0156122	65535
791	3032	1.0160746	65535
791	3073	1.016537	65535
791	3129	1.016957	65535
791	3234	1.017553	65535
792	814	1.001257	65535
792	1201	1.0033418	65535
792	1204	1.0033418	65535
792	1679	1.0075318	65535
792	1679	1.0075318	65535
792	2377	1.0123762	65535
792	2377	1.0123762	65535
792	2631	1.0129202	65535
792	2631	1.0129202	65535
792	2826	1.0144186	65535
792	2826	1.0144186	65535
792	3141	1.0170242	65535
792	3145	1.0170242	65535
793	814	1.001257	315536
793	814	1.001257	315536
793	1201	1.0033418	315879
793	1204	1.0033418	315879
793	1679	1.0075318	315879
793	1679	1.0075318	315879
793	2377	1.0123762	315879
793	2377	1.0123762	315879
793	2631	1.0129202	315879
793	2631	1.0129202	315879
793	2826	1.0144186	315879
793	2826	1.0144186	315879
793	3141	1.0170242	315880
793	3145	1.0170242	315880
794	1204	1.0033418	250315
794	1679	1.0075318	250815
794	1679	1.0075318	251315
794	2377	1.0123762	251815
794	2377	1.0123762	252315
794	2631	1.0129202	252815
794	2631	1.0129202	253315
794	2826	1.0144186	253815
794	2826	1.0144186	254315
795	814	1.001257	250001
795	1201	1.0033418	250344
795	1204	1.0033418	250344
795	1679	1.0075318	250344
795	1679	1.0075318	250344
795	2377	1.0123762	250344
795	2377	1.0123762	250344
795	2631	1.0129202	250344
795	2631	1.0129202	250344
795	2826	1.0144186	250344
795	2826	1.0144186	250344
795	3141	1.0170242	250345
795	3145	1.0170242	250345
796	814	1.001257	250000
796	1151	1.0029378	250001
796	1201	1.0033418	250001
796	1679	1.0075318	250344
796	2377	1.0123762	250344
796	2631	1.0129202	250344
796	2826	1.0144186	250344
796	2908	1.014881	250344
796	2983	1.0156122	250344
796	3032	1.0160746	250344
796	3073	1.016537	250344
796	3129	1.016957	250344
796	3141	1.0170242	250344
796	3234	1.017553	250345
797	814	1.001257	0
797	1151	1.0029378	250315
797	1201	1.0033418	250315
797	1679	1.0075318	250815
797	2377	1.0123762	251315
797	2631	1.0129202	251815
797	2826	1.0144186	252315
797	2908	1.014881	252815
797	2983	1.0156122	253315
797	3032	1.0160746	253815
797	3073	1.016537	254315
797	3129	1.016957	254762
797	3141	1.0170242	254762
797	3234	1.017553	254763
798	1151	1.0029378	0
798	1204	1.0033418	500
798	1679	1.0075318	0
798	1679	1.0075318	1000
798	2377	1.0123762	500
798	2377	1.0123762	1500
798	2631	1.0129202	1000
798	2631	1.0129202	2000
798	2826	1.0144186	1500
798	2826	1.0144186	2447
798	2908	1.014881	1947
798	2983	1.0156122	1447
798	3032	1.0160746	947
798	3073	1.016537	447
798	3129	1.016957	0
798	3145	1.0170242	1
798	3234	1.017553	0
799	1201	1.0033418	0
799	1679	1.0075318	0
799	2377	1.0123762	0
799	2631	1.0129202	0
799	2826	1.0144186	0
799	2908	1.014881	0
799	2983	1.0156122	0
799	3032	1.0160746	0
799	3073	1.016537	0
799	3129	1.016957	0
799	3141	1.0170242	0
799	3234	1.017553	0
806	814	1.001257	0
806	1201	1.0033418	0
806	1201	1.0033418	0
806	1204	1.0033418	0
806	1679	1.0075318	0
806	1679	1.0075318	0
806	2377	1.0123762	0
806	2377	1.0123762	0
806	2631	1.0129202	0
806	2631	1.0129202	0
806	2826	1.0144186	0
806	2826	1.0144186	0
806	3141	1.0170242	0
806	3145	1.0170242	0
vector 878  net2.comp1[0].tcp  tcpRcvQueueBytes  ETV
vector 865  net2.comp1[0].tcp  "advertised window"  ETV
vector 864  net2.comp1[0].tcp  "receive window"  ETV
vector 867  net2.comp1[0].tcp  "sent ack"  ETV
vector 844  net2.server.tcp  "rcvd seq"  ETV
vector 845  net2.server.tcp  "rcvd ack"  ETV
vector 841  net2.server.tcp  "advertised window"  ETV
vector 839  net2.server.tcp  "send window"  ETV
vector 854  net2.server.tcp  tcpRcvQueueBytes  ETV
vector 840  net2.server.tcp  "receive window"  ETV
vector 843  net2.server.tcp  "sent ack"  ETV
vector 868  net2.comp1[0].tcp  "rcvd seq"  ETV
vector 869  net2.comp1[0].tcp  "rcvd ack"  ETV
vector 863  net2.comp1[0].tcp  "send window"  ETV
vector 866  net2.comp1[0].tcp  "sent seq"  ETV
vector 870  net2.comp1[0].tcp  "unacked bytes"  ETV
vector 846  net2.server.tcp  "unacked bytes"  ETV
vector 926  net2.inicial.tcp  tcpRcvQueueBytes  ETV
vector 913  net2.inicial.tcp  "advertised window"  ETV
vector 912  net2.inicial.tcp  "receive window"  ETV
vector 915  net2.inicial.tcp  "sent ack"  ETV
vector 847  net2.server.tcp  "rcvd dupAcks"  ETV
vector 842  net2.server.tcp  "sent seq"  ETV
vector 950  net2.comp[0].tcp  tcpRcvQueueBytes  ETV
vector 937  net2.comp[0].tcp  "advertised window"  ETV
vector 936  net2.comp[0].tcp  "receive window"  ETV
vector 939  net2.comp[0].tcp  "sent ack"  ETV
vector 882  net2.comp1[0].tcp  "measured RTT"  ETV
vector 883  net2.comp1[0].tcp  "smoothed RTT"  ETV
vector 884  net2.comp1[0].tcp  RTTVAR  ETV
vector 885  net2.comp1[0].tcp  RTO  ETV
vector 880  net2.comp1[0].tcp  cwnd  ETV
vector 871  net2.comp1[0].tcp  "rcvd dupAcks"  ETV
vector 892  net2.server.tcp  "rcvd seq"  ETV
vector 893  net2.server.tcp  "rcvd ack"  ETV
vector 889  net2.server.tcp  "advertised window"  ETV
vector 887  net2.server.tcp  "send window"  ETV
vector 902  net2.server.tcp  tcpRcvQueueBytes  ETV
vector 888  net2.server.tcp  "receive window"  ETV
vector 891  net2.server.tcp  "sent ack"  ETV
vector 964  net2.server.tcp  "rcvd seq"  ETV
vector 965  net2.server.tcp  "rcvd ack"  ETV
vector 961  net2.server.tcp  "advertised window"  ETV
vector 959  net2.server.tcp  "send window"  ETV
vector 974  net2.server.tcp  tcpRcvQueueBytes  ETV
vector 960  net2.server.tcp  "receive window"  ETV
vector 963  net2.server.tcp  "sent ack"  ETV
vector 916  net2.inicial.tcp  "rcvd seq"  ETV
vector 917  net2.inicial.tcp  "rcvd ack"  ETV
vector 911  net2.inicial.tcp  "send window"  ETV
vector 914  net2.inicial.tcp  "sent seq"  ETV
vector 918  net2.inicial.tcp  "unacked bytes"  ETV
vector 940  net2.comp[0].tcp  "rcvd seq"  ETV
vector 941  net2.comp[0].tcp  "rcvd ack"  ETV
vector 935  net2.comp[0].tcp  "send window"  ETV
vector 938  net2.comp[0].tcp  "sent seq"  ETV
vector 942  net2.comp[0].tcp  "unacked bytes"  ETV
vector 1022  net2.comp1[1].tcp  tcpRcvQueueBytes  ETV
vector 1009  net2.comp1[1].tcp  "advertised window"  ETV
vector 1008  net2.comp1[1].tcp  "receive window"  ETV
vector 1011  net2.comp1[1].tcp  "sent ack"  ETV
vector 894  net2.server.tcp  "unacked bytes"  ETV
vector 988  net2.server.tcp  "rcvd seq"  ETV
vector 989  net2.server.tcp  "rcvd ack"  ETV
vector 985  net2.server.tcp  "advertised window"  ETV
vector 983  net2.server.tcp  "send window"  ETV
vector 998  net2.server.tcp  tcpRcvQueueBytes  ETV
vector 984  net2.server.tcp  "receive window"  ETV
vector 987  net2.server.tcp  "sent ack"  ETV
vector 966  net2.server.tcp  "unacked bytes"  ETV
vector 1012  net2.comp1[1].tcp  "rcvd seq"  ETV
vector 1013  net2.comp1[1].tcp  "rcvd ack"  ETV
vector 1007  net2.comp1[1].tcp  "send window"  ETV
vector 1010  net2.comp1[1].tcp  "sent seq"  ETV
vector 1014  net2.comp1[1].tcp  "unacked bytes"  ETV
vector 858  net2.server.tcp  "measured RTT"  ETV
vector 859  net2.server.tcp  "smoothed RTT"  ETV
vector 860  net2.server.tcp  RTTVAR  ETV
vector 861  net2.server.tcp  RTO  ETV
vector 856  net2.server.tcp  cwnd  ETV
vector 990  net2.server.tcp  "unacked bytes"  ETV
vector 1070  net2.comp[2].tcp  tcpRcvQueueBytes  ETV
vector 1057  net2.comp[2].tcp  "advertised window"  ETV
vector 1056  net2.comp[2].tcp  "receive window"  ETV
vector 1059  net2.comp[2].tcp  "sent ack"  ETV
vector 991  net2.server.tcp  "rcvd dupAcks"  ETV
vector 986  net2.server.tcp  "sent seq"  ETV
vector 1026  net2.comp1[1].tcp  "measured RTT"  ETV
vector 1027  net2.comp1[1].tcp  "smoothed RTT"  ETV
vector 1028  net2.comp1[1].tcp  RTTVAR  ETV
vector 1029  net2.comp1[1].tcp  RTO  ETV
vector 1024  net2.comp1[1].tcp  cwnd  ETV
vector 1015  net2.comp1[1].tcp  "rcvd dupAcks"  ETV
vector 895  net2.server.tcp  "rcvd dupAcks"  ETV
vector 890  net2.server.tcp  "sent seq"  ETV
vector 967  net2.server.tcp  "rcvd dupAcks"  ETV
vector 962  net2.server.tcp  "sent seq"  ETV
vector 1036  net2.server.tcp  "rcvd seq"  ETV
vector 1037  net2.server.tcp  "rcvd ack"  ETV
vector 1033  net2.server.tcp  "advertised window"  ETV
vector 1031  net2.server.tcp  "send window"  ETV
vector 1046  net2.server.tcp  tcpRcvQueueBytes  ETV
vector 1032  net2.server.tcp  "receive window"  ETV
vector 1035  net2.server.tcp  "sent ack"  ETV
vector 930  net2.inicial.tcp  "measured RTT"  ETV
vector 931  net2.inicial.tcp  "smoothed RTT"  ETV
vector 932  net2.inicial.tcp  RTTVAR  ETV
vector 933  net2.inicial.tcp  RTO  ETV
vector 928  net2.inicial.tcp  cwnd  ETV
vector 919  net2.inicial.tcp  "rcvd dupAcks"  ETV
vector 1002  net2.server.tcp  "measured RTT"  ETV
vector 1003  net2.server.tcp  "smoothed RTT"  ETV
vector 1004  net2.server.tcp  RTTVAR  ETV
vector 1005  net2.server.tcp  RTO  ETV
vector 1000  net2.server.tcp  cwnd  ETV
vector 954  net2.comp[0].tcp  "measured RTT"  ETV
vector 955  net2.comp[0].tcp  "smoothed RTT"  ETV
vector 956  net2.comp[0].tcp  RTTVAR  ETV
vector 957  net2.comp[0].tcp  RTO  ETV
vector 952  net2.comp[0].tcp  cwnd  ETV
vector 943  net2.comp[0].tcp  "rcvd dupAcks"  ETV
vector 1060  net2.comp[2].tcp  "rcvd seq"  ETV
vector 1061  net2.comp[2].tcp  "rcvd ack"  ETV
vector 1055  net2.comp[2].tcp  "send window"  ETV
vector 1058  net2.comp[2].tcp  "sent seq"  ETV
vector 1062  net2.comp[2].tcp  "unacked bytes"  ETV
vector 906  net2.server.tcp  "measured RTT"  ETV
vector 907  net2.server.tcp  "smoothed RTT"  ETV
vector 908  net2.server.tcp  RTTVAR  ETV
vector 909  net2.server.tcp  RTO  ETV
vector 904  net2.server.tcp  cwnd  ETV
vector 1118  net2.comp[1].tcp  tcpRcvQueueBytes  ETV
vector 1105  net2.comp[1].tcp  "advertised window"  ETV
vector 1104  net2.comp[1].tcp  "receive window"  ETV
vector 1107  net2.comp[1].tcp  "sent ack"  ETV
vector 1038  net2.server.tcp  "unacked bytes"  ETV
vector 1084  net2.server.tcp  "rcvd seq"  ETV
vector 1085  net2.server.tcp  "rcvd ack"  ETV
vector 1081  net2.server.tcp  "advertised window"  ETV
vector 1079  net2.server.tcp  "send window"  ETV
vector 1094  net2.server.tcp  tcpRcvQueueBytes  ETV
vector 1080  net2.server.tcp  "receive window"  ETV
vector 1083  net2.server.tcp  "sent ack"  ETV
vector 978  net2.server.tcp  "measured RTT"  ETV
vector 979  net2.server.tcp  "smoothed RTT"  ETV
vector 980  net2.server.tcp  RTTVAR  ETV
vector 981  net2.server.tcp  RTO  ETV
vector 976  net2.server.tcp  cwnd  ETV
vector 1039  net2.server.tcp  "rcvd dupAcks"  ETV
vector 1034  net2.server.tcp  "sent seq"  ETV
vector 1108  net2.comp[1].tcp  "rcvd seq"  ETV
vector 1109  net2.comp[1].tcp  "rcvd ack"  ETV
vector 1103  net2.comp[1].tcp  "send window"  ETV
vector 1106  net2.comp[1].tcp  "sent seq"  ETV
vector 1110  net2.comp[1].tcp  "unacked bytes"  ETV
vector 1086  net2.server.tcp  "unacked bytes"  ETV
856	3600	1.5137514	1000
856	3811	1.5152982	1500
856	3831	1.5153654	2000
856	4071	1.5173836	2500
856	4181	1.5178174	3000
856	4235	1.5182798	3500
856	4269	1.5184518	4000
856	4624	1.5204374	4500
858	3600	1.5137514	0.0012008
858	3811	1.5152982	0.0015468
858	4071	1.5173836	0.0020854
859	3600	1.5137514	0.0001501
859	3811	1.5152982	0.0003246875
859	4071	1.5173836	0.000544776563
860	3600	1.5137514	0.6564001
860	3811	1.5152982	0.574524675
860	4071	1.5173836	0.502929179688
861	3600	1.5137514	2.6257505
861	3811	1.5152982	2.2984233875
861	4071	1.5173836	2.012261495315
839	3253	1.511731	65535
839	3291	1.511965	65535
839	3600	1.5137514	65535
839	3811	1.5152982	65535
839	3831	1.5153654	65535
839	4071	1.5173836	65535
839	4181	1.5178174	65535
839	4235	1.5182798	65535
839	4269	1.5184518	65535
839	4624	1.5204374	65535
840	3253	1.511731	65535
840	3310	1.5125506	65535
840	3313	1.5125506	65535
840	3600	1.5137514	65535
840	3600	1.5137514	65535
840	3811	1.5152982	65535
840	3811	1.5152982	65535
840	3831	1.5153654	65535
840	3831	1.5153654	65535
840	4329	1.5188566	65535
840	4333	1.5188566	65535
841	3253	1.511731	443439
841	3253	1.511731	443439
841	3310	1.5125506	443769
841	3313	1.5125506	443769
841	3600	1.5137514	443769
841	3600	1.5137514	443769
841	3811	1.5152982	443769
841	3811	1.5152982	443769
841	3831	1.5153654	443769
841	3831	1.5153654	443769
841	4329	1.5188566	443770
841	4333	1.5188566	443770
842	3313	1.5125506	377933
842	3600	1.5137514	378433
842	3600	1.5137514	378933
842	3811	1.5152982	379433
842	3811	1.5152982	379933
842	3831	1.5153654	380433
842	3831	1.5153654	380933
843	3253	1.511731	377904
843	3310	1.5125506	378234
843	3313	1.5125506	378234
843	3600	1.5137514	378234
843	3600	1.5137514	378234
843	3811	1.5152982	378234
843	3811	1.5152982	378234
843	3831	1.5153654	378234
843	3831	1.5153654	378234
843	4329	1.5188566	378235
843	4333	1.5188566	378235
844	3253	1.511731	377903
844	3291	1.511965	377904
844	3310	1.5125506	377904
844	3600	1.5137514	378234
844	3811	1.5152982	378234
844	3831	1.5153654	378234
844	4071	1.5173836	378234
844	4181	1.5178174	378234
844	4235	1.5182798	378234
844	4269	1.5184518	378234
844	4329	1.5188566	378234
844	4624	1.5204374	378235
845	3253	1.511731	0
845	3291	1.511965	377933
845	3310	1.5125506	377933
845	3600	1.5137514	378433
845	3811	1.5152982	378933
845	3831	1.5153654	379433
845	4071	1.5173836	379933
845	4181	1.5178174	380433
845	4235	1.5182798	380933
845	4269	1.5184518	381070
845	4329	1.5188566	381070
845	4624	1.5204374	381071
846	3291	1.511965	0
846	3313	1.5125506	500
846	3600	1.5137514	0
846	3600	1.5137514	1000
846	3811	1.5152982	500
846	3811	1.5152982	1500
846	3831	1.5153654	1000
846	3831	1.5153654	1637
846	4071	1.5173836	1137
846	4181	1.5178174	637
846	4235	1.5182798	137
846	4269	1.5184518	0
846	4333	1.5188566	1
846	4624	1.5204374	0
847	3310	1.5125506	0
847	3600	1.5137514	0
847	3811	1.5152982	0
847	3831	1.5153654	0
847	4071	1.5173836	0
847	4181	1.5178174	0
847	4235	1.5182798	0
847	4269	1.5184518	0
847	4329	1.5188566	0
847	4624	1.5204374	0
854	3253	1.511731	0
854	3310	1.5125506	0
854	3310	1.5125506	0
854	3313	1.5125506	0
854	3600	1.5137514	0
854	3600	1.5137514	0
854	3811	1.5152982	0
854	3811	1.5152982	0
854	3831	1.5153654	0
854	3831	1.5153654	0
854	4329	1.5188566	0
854	4333	1.5188566	0
1000	3877	1.5157646	1000
1000	4343	1.5189238	1500
1000	4687	1.5206314	2000
1002	3877	1.5157646	0.0012416
1002	4343	1.5189238	0.0031592
1003	3877	1.5157646	0.0001552
1003	4343	1.5189238	0.0005307
1004	3877	1.5157646	0.6564052
1004	4343	1.5189238	0.57473005
1005	3877	1.5157646	2.625776
1005	4343	1.5189238	2.2994509
983	3557	1.513617	65535
983	3626	1.513851	65535
983	3877	1.5157646	65535
983	4343	1.5189238	65535
983	4687	1.5206314	65535
984	3557	1.513617	65535
984	3686	1.514523	65535
984	3689	1.514523	65535
984	3877	1.5157646	65535
984	4355	1.518991	65535
984	4359	1.518991	65535
985	3557	1.513617	443906
985	3557	1.513617	443906
985	3686	1.514523	444290
985	3689	1.514523	444290
985	3877	1.5157646	444290
985	4355	1.518991	444291
985	4359	1.518991	444291
986	3689	1.514523	378405
986	3877	1.5157646	378905
987	3557	1.513617	378371
987	3686	1.514523	378755
987	3689	1.514523	378755
987	3877	1.5157646	378755
987	4355	1.518991	378756
987	4359	1.518991	378756
988	3557	1.513617	378370
988	3626	1.513851	378371
988	3686	1.514523	378371
988	3877	1.5157646	378755
988	4343	1.5189238	378755
988	4355	1.518991	378755
988	4687	1.5206314	378756
989	3557	1.513617	0
989	3626	1.513851	378405
989	3686	1.514523	378405
989	3877	1.5157646	378905
989	4343	1.5189238	379228
989	4355	1.518991	379228
989	4687	1.5206314	379229
990	3626	1.513851	0
990	3689	1.514523	500
990	3877	1.5157646	0
990	3877	1.5157646	323
990	4343	1.5189238	0
990	4359	1.518991	1
990	4687	1.5206314	0
991	3686	1.514523	0
991	3877	1.5157646	0
991	4343	1.5189238	0
991	4355	1.518991	0
991	4687	1.5206314	0
998	3557	1.513617	0
998	3686	1.514523	0
998	3686	1.514523	0
998	3689	1.514523	0
998	3877	1.5157646	0
998	4355	1.518991	0
998	4359	1.518991	0
vector 1074  net2.comp[2].tcp  "measured RTT"  ETV
vector 1075  net2.comp[2].tcp  "smoothed RTT"  ETV
vector 1076  net2.comp[2].tcp  RTTVAR  ETV
vector 1077  net2.comp[2].tcp  RTO  ETV
vector 1072  net2.comp[2].tcp  cwnd  ETV
vector 1063  net2.comp[2].tcp  "rcvd dupAcks"  ETV
vector 1087  net2.server.tcp  "rcvd dupAcks"  ETV
vector 1082  net2.server.tcp  "sent seq"  ETV
vector 1050  net2.server.tcp  "measured RTT"  ETV
vector 1051  net2.server.tcp  "smoothed RTT"  ETV
vector 1052  net2.server.tcp  RTTVAR  ETV
vector 1053  net2.server.tcp  RTO  ETV
vector 1048  net2.server.tcp  cwnd  ETV
vector 1122  net2.comp[1].tcp  "measured RTT"  ETV
vector 1123  net2.comp[1].tcp  "smoothed RTT"  ETV
vector 1124  net2.comp[1].tcp  RTTVAR  ETV
vector 1125  net2.comp[1].tcp  RTO  ETV
vector 1120  net2.comp[1].tcp  cwnd  ETV
vector 1111  net2.comp[1].tcp  "rcvd dupAcks"  ETV
904	4042	1.5173164	1000
904	4542	1.5203066	1500
904	4674	1.5205642	2000
904	5095	1.5233274	2500
906	4042	1.5173164	0.0024798
906	4542	1.5203066	0.0029902
907	4042	1.5173164	0.000309975
907	4542	1.5203066	0.000645003125
908	4042	1.5173164	0.656559975
908	4542	1.5203066	0.57482500625
909	4042	1.5173164	2.626549875
909	4542	1.5203066	2.299945028125
887	3370	1.5127554	65535
887	3536	1.5135482	65535
887	4042	1.5173164	65535
887	4542	1.5203066	65535
887	4674	1.5205642	65535
887	5095	1.5233274	65535
888	3370	1.5127554	65535
888	3746	1.5148366	65535
888	3749	1.5148366	65535
888	4042	1.5173164	65535
888	4042	1.5173164	65535
888	4881	1.5215458	65535
888	4885	1.5215458	65535
889	3370	1.5127554	443665
889	3370	1.5127554	443665
889	3746	1.5148366	443979
889	3749	1.5148366	443979
889	4042	1.5173164	443979
889	4042	1.5173164	443979
889	4881	1.5215458	443980
889	4885	1.5215458	443980
890	3749	1.5148366	378189
890	4042	1.5173164	378689
890	4042	1.5173164	379189
891	3370	1.5127554	378130
891	3746	1.5148366	378444
891	3749	1.5148366	378444
891	4042	1.5173164	378444
891	4042	1.5173164	378444
891	4881	1.5215458	378445
891	4885	1.5215458	378445
892	3370	1.5127554	378129
892	3536	1.5135482	378130
892	3746	1.5148366	378130
892	4042	1.5173164	378444
892	4542	1.5203066	378444
892	4674	1.5205642	378444
892	4881	1.5215458	378444
892	5095	1.5233274	378445
893	3370	1.5127554	0
893	3536	1.5135482	378189
893	3746	1.5148366	378189
893	4042	1.5173164	378689
893	4542	1.5203066	379189
893	4674	1.5205642	379496
893	4881	1.5215458	379496
893	5095	1.5233274	379497
894	3536	1.5135482	0
894	3749	1.5148366	500
894	4042	1.5173164	0
894	4042	1.5173164	807
894	4542	1.5203066	307
894	4674	1.5205642	0
894	4885	1.5215458	1
894	5095	1.5233274	0
895	3746	1.5148366	0
895	4042	1.5173164	0
895	4542	1.5203066	0
895	4674	1.5205642	0
895	4881	1.5215458	0
895	5095	1.5233274	0
902	3370	1.5127554	0
902	3746	1.5148366	0
902	3746	1.5148366	0
902	3749	1.5148366	0
902	4042	1.5173164	0
902	4042	1.5173164	0
902	4881	1.5215458	0
902	4885	1.5215458	0
vector 1098  net2.server.tcp  "measured RTT"  ETV
vector 1099  net2.server.tcp  "smoothed RTT"  ETV
vector 1100  net2.server.tcp  RTTVAR  ETV
vector 1101  net2.server.tcp  RTO  ETV
vector 1096  net2.server.tcp  cwnd  ETV
1048	4922	1.5216802	1000
1048	5288	1.5243866	1500
1050	4922	1.5216802	0.0028908
1051	4922	1.5216802	0.00036135
1052	4922	1.5216802	0.65661135
1053	4922	1.5216802	2.62680675
1031	3796	1.515231	65535
1031	4101	1.5175202	65535
1031	4922	1.5216802	65535
1031	5288	1.5243866	65535
1032	3796	1.515231	65535
1032	4315	1.5187894	65535
1032	4318	1.5187894	65535
1032	4934	1.5217474	65535
1032	4938	1.5217474	65535
1033	3796	1.515231	444133
1033	3796	1.515231	444133
1033	4315	1.5187894	444477
1033	4318	1.5187894	444477
1033	4934	1.5217474	444478
1033	4938	1.5217474	444478
1034	4318	1.5187894	378808
1035	3796	1.515231	378598
1035	4315	1.5187894	378942
1035	4318	1.5187894	378942
1035	4934	1.5217474	378943
1035	4938	1.5217474	378943
1036	3796	1.515231	378597
1036	4101	1.5175202	378598
1036	4315	1.5187894	378598
1036	4922	1.5216802	378942
1036	4934	1.5217474	378942
1036	5288	1.5243866	378943
1037	3796	1.515231	0
1037	4101	1.5175202	378808
1037	4315	1.5187894	378808
1037	4922	1.5216802	378848
1037	4934	1.5217474	378848
1037	5288	1.5243866	378849
1038	4101	1.5175202	0
1038	4318	1.5187894	40
1038	4922	1.5216802	0
1038	4938	1.5217474	1
1038	5288	1.5243866	0
1039	4315	1.5187894	0
1039	4922	1.5216802	0
1039	4934	1.5217474	0
1039	5288	1.5243866	0
1046	3796	1.515231	0
1046	4315	1.5187894	0
1046	4315	1.5187894	0
1046	4318	1.5187894	0
1046	4934	1.5217474	0
1046	4938	1.5217474	0
976	4191	1.5178846	1000
976	4904	1.521613	1500
976	4948	1.5218146	2000
976	5257	1.524185	2500
976	5345	1.5246474	3000
976	5406	1.5252442	3500
976	5462	1.5257066	4000
976	5640	1.5270938	4500
976	5699	1.5275562	5000
976	5769	1.5280186	5500
976	5826	1.5282378	6000
976	6110	1.5298266	6500
978	4191	1.5178846	0.0027224
978	4904	1.521613	0.0037284
978	5257	1.524185	0.002572
978	5640	1.5270938	0.0029088
979	4191	1.5178846	0.0003403
979	4904	1.521613	0.0007638125
979	5257	1.524185	0.000989835938
979	5640	1.5270938	0.001229706446
980	4191	1.5178846	0.6565903
980	4904	1.521613	0.574940025
980	5257	1.524185	0.503298545313
980	5640	1.5270938	0.440626097657
981	4191	1.5178846	2.6267015
981	4904	1.521613	2.3005239125
981	5257	1.524185	2.01418401719
981	5640	1.5270938	1.763734097074
959	3393	1.5128898	65535
959	3571	1.5136842	65535
959	4191	1.5178846	65535
959	4904	1.521613	65535
959	4948	1.5218146	65535
959	5257	1.524185	65535
959	5345	1.5246474	65535
959	5406	1.5252442	65535
959	5462	1.5257066	65535
959	5640	1.5270938	65535
959	5699	1.5275562	65535
959	5769	1.5280186	65535
959	5826	1.5282378	65535
959	6110	1.5298266	65535
960	3393	1.5128898	65535
960	3770	1.5151622	65535
960	3773	1.5151622	65535
960	4191	1.5178846	65535
960	4191	1.5178846	65535
960	4904	1.521613	65535
960	4904	1.521613	65535
960	4948	1.5218146	65535
960	4948	1.5218146	65535
960	5257	1.524185	65535
960	5257	1.524185	65535
960	5345	1.5246474	65535
960	5345	1.5246474	65535
960	5837	1.528305	65535
960	5841	1.528305	65535
961	3393	1.5128898	443699
961	3393	1.5128898	443699
961	3770	1.5151622	444028
961	3773	1.5151622	444028
961	4191	1.5178846	444028
961	4191	1.5178846	444028
961	4904	1.521613	444028
961	4904	1.521613	444028
961	4948	1.5218146	444028
961	4948	1.5218146	444028
961	5257	1.524185	444028
961	5257	1.524185	444028
961	5345	1.5246474	444028
961	5345	1.5246474	444028
961	5837	1.528305	444029
961	5841	1.528305	444029
962	3773	1.5151622	378223
962	4191	1.5178846	378723
962	4191	1.5178846	379223
962	4904	1.521613	379723
962	4904	1.521613	380223
962	4948	1.5218146	380723
962	4948	1.5218146	381223
962	5257	1.524185	381723
962	5257	1.524185	382223
962	5345	1.5246474	382723
962	5345	1.5246474	383223
963	3393	1.5128898	378164
963	3770	1.5151622	378493
963	3773	1.5151622	378493
963	4191	1.5178846	378493
963	4191	1.5178846	378493
963	4904	1.521613	378493
963	4904	1.521613	378493
963	4948	1.5218146	378493
963	4948	1.5218146	378493
963	5257	1.524185	378493
963	5257	1.524185	378493
963	5345	1.5246474	378493
963	5345	1.5246474	378493
963	5837	1.528305	378494
963	5841	1.528305	378494
964	3393	1.5128898	378163
964	3571	1.5136842	378164
964	3770	1.5151622	378164
964	4191	1.5178846	378493
964	4904	1.521613	378493
964	4948	1.5218146	378493
964	5257	1.524185	378493
964	5345	1.5246474	378493
964	5406	1.5252442	378493
964	5462	1.5257066	378493
964	5640	1.5270938	378493
964	5699	1.5275562	378493
964	5769	1.5280186	378493
964	5826	1.5282378	378493
964	5837	1.528305	378493
964	6110	1.5298266	378494
965	3393	1.5128898	0
965	3571	1.5136842	378223
965	3770	1.5151622	378223
965	4191	1.5178846	378723
965	4904	1.521613	379223
965	4948	1.5218146	379723
965	5257	1.524185	380223
965	5345	1.5246474	380723
965	5406	1.5252442	381223
965	5462	1.5257066	381723
965	5640	1.5270938	382223
965	5699	1.5275562	382723
965	5769	1.5280186	383223
965	5826	1.5282378	383419
965	5837	1.528305	383419
965	6110	1.5298266	383420
966	3571	1.5136842	0
966	3773	1.5151622	500
966	4191	1.5178846	0
966	4191	1.5178846	1000
966	4904	1.521613	500
966	4904	1.521613	1500
966	4948	1.5218146	1000
966	4948	1.5218146	2000
966	5257	1.524185	1500
966	5257	1.524185	2500
966	5345	1.5246474	2000
966	5345	1.5246474	2696
966	5406	1.5252442	2196
966	5462	1.5257066	1696
966	5640	1.5270938	1196
966	5699	1.5275562	696
966	5769	1.5280186	196
966	5826	1.5282378	0
966	5841	1.528305	1
966	6110	1.5298266	0
967	3770	1.5151622	0
967	4191	1.5178846	0
967	4904	1.521613	0
967	4948	1.5218146	0
967	5257	1.524185	0
967	5345	1.5246474	0
967	5406	1.5252442	0
967	5462	1.5257066	0
967	5640	1.5270938	0
967	5699	1.5275562	0
967	5769	1.5280186	0
967	5826	1.5282378	0
967	5837	1.528305	0
967	6110	1.5298266	0
974	3393	1.5128898	0
974	3770	1.5151622	0
974	3770	1.5151622	0
974	3773	1.5151622	0
974	4191	1.5178846	0
974	4191	1.5178846	0
974	4904	1.521613	0
974	4904	1.521613	0
974	4948	1.5218146	0
974	4948	1.5218146	0
974	5257	1.524185	0
974	5257	1.524185	0
974	5345	1.5246474	0
974	5345	1.5246474	0
974	5837	1.528305	0
974	5841	1.528305	0
1096	5152	1.5235882	1000
1096	5517	1.526169	1500
1096	5579	1.5266314	2000
1096	5913	1.5287002	2500
1096	5988	1.5291626	3000
1096	6078	1.529625	3500
1096	6165	1.5300874	4000
1096	6221	1.5307426	4500
1096	6276	1.531205	5000
1096	6330	1.5316674	5500
1096	6379	1.5321298	6000
1096	6420	1.5325922	6500
1096	6476	1.5328946	7000
1096	6581	1.5334906	7500
1098	5152	1.5235882	0.0021096
1098	5517	1.526169	0.0025808
1098	5913	1.5287002	0.0025312
1098	6221	1.5307426	0.0020424
1099	5152	1.5235882	0.0002637
1099	5517	1.526169	0.0005533375
1099	5913	1.5287002	0.000800570313
1099	6221	1.5307426	0.000955799024
1100	5152	1.5235882	0.6565137
1100	5517	1.526169	0.574739125
1100	5913	1.5287002	0.503143967188
1100	6221	1.5307426	0.4404062
1101	5152	1.5235882	2.6263185
1101	5517	1.526169	2.2995098375
1101	5913	1.5287002	2.013376439065
1101	6221	1.5307426	1.762580599024
1079	4114	1.5175922	65535
1079	4518	1.5202394	65535
1079	5152	1.5235882	65535
1079	5517	1.526169	65535
1079	5579	1.5266314	65535
1079	5913	1.5287002	65535
1079	5988	1.5291626	65535
1079	6078	1.529625	65535
1079	6165	1.5300874	65535
1079	6221	1.5307426	65535
1079	6276	1.531205	65535
1079	6330	1.5316674	65535
1079	6379	1.5321298	65535
1079	6420	1.5325922	65535
1079	6476	1.5328946	65535
1079	6581	1.5334906	65535
1080	4114	1.5175922	65535
1080	4855	1.5214786	65535
1080	4858	1.5214786	65535
1080	5152	1.5235882	65535
1080	5152	1.5235882	65535
1080	5517	1.526169	65535
1080	5517	1.526169	65535
1080	5579	1.5266314	65535
1080	5579	1.5266314	65535
1080	5913	1.5287002	65535
1080	5913	1.5287002	65535
1080	5988	1.5291626	65535
1080	5988	1.5291626	65535
1080	6078	1.529625	65535
1080	6078	1.529625	65535
1080	6488	1.5329618	65535
1080	6492	1.5329618	65535
1081	4114	1.5175922	444866
1081	4114	1.5175922	444866
1081	4855	1.5214786	445225
1081	4858	1.5214786	445225
1081	5152	1.5235882	445225
1081	5152	1.5235882	445225
1081	5517	1.526169	445225
1081	5517	1.526169	445225
1081	5579	1.5266314	445225
1081	5579	1.5266314	445225
1081	5913	1.5287002	445225
1081	5913	1.5287002	445225
1081	5988	1.5291626	445225
1081	5988	1.5291626	445225
1081	6078	1.529625	445225
1081	6078	1.529625	445225
1081	6488	1.5329618	445226
1081	6492	1.5329618	445226
1082	4858	1.5214786	379399
1082	5152	1.5235882	379899
1082	5152	1.5235882	380399
1082	5517	1.526169	380899
1082	5517	1.526169	381399
1082	5579	1.5266314	381899
1082	5579	1.5266314	382399
1082	5913	1.5287002	382899
1082	5913	1.5287002	383399
1082	5988	1.5291626	383899
1082	5988	1.5291626	384399
1082	6078	1.529625	384899
1082	6078	1.529625	385399
1083	4114	1.5175922	379331
1083	4855	1.5214786	379690
1083	4858	1.5214786	379690
1083	5152	1.5235882	379690
1083	5152	1.5235882	379690
1083	5517	1.526169	379690
1083	5517	1.526169	379690
1083	5579	1.5266314	379690
1083	5579	1.5266314	379690
1083	5913	1.5287002	379690
1083	5913	1.5287002	379690
1083	5988	1.5291626	379690
1083	5988	1.5291626	379690
1083	6078	1.529625	379690
1083	6078	1.529625	379690
1083	6488	1.5329618	379691
1083	6492	1.5329618	379691
1084	4114	1.5175922	379330
1084	4518	1.5202394	379331
1084	4855	1.5214786	379331
1084	5152	1.5235882	379690
1084	5517	1.526169	379690
1084	5579	1.5266314	379690
1084	5913	1.5287002	379690
1084	5988	1.5291626	379690
1084	6078	1.529625	379690
1084	6165	1.5300874	379690
1084	6221	1.5307426	379690
1084	6276	1.531205	379690
1084	6330	1.5316674	379690
1084	6379	1.5321298	379690
1084	6420	1.5325922	379690
1084	6476	1.5328946	379690
1084	6488	1.5329618	379690
1084	6581	1.5334906	379691
1085	4114	1.5175922	0
1085	4518	1.5202394	379399
1085	4855	1.5214786	379399
1085	5152	1.5235882	379899
1085	5517	1.526169	380399
1085	5579	1.5266314	380899
1085	5913	1.5287002	381399
1085	5988	1.5291626	381899
1085	6078	1.529625	382399
1085	6165	1.5300874	382899
1085	6221	1.5307426	383399
1085	6276	1.531205	383899
1085	6330	1.5316674	384399
1085	6379	1.5321298	384899
1085	6420	1.5325922	385399
1085	6476	1.5328946	385699
1085	6488	1.5329618	385699
1085	6581	1.5334906	385700
1086	4518	1.5202394	0
1086	4858	1.5214786	500
1086	5152	1.5235882	0
1086	5152	1.5235882	1000
1086	5517	1.526169	500
1086	5517	1.526169	1500
1086	5579	1.5266314	1000
1086	5579	1.5266314	2000
1086	5913	1.5287002	1500
1086	5913	1.5287002	2500
1086	5988	1.5291626	2000
1086	5988	1.5291626	3000
1086	6078	1.529625	2500
1086	6078	1.529625	3300
1086	6165	1.5300874	2800
1086	6221	1.5307426	2300
1086	6276	1.531205	1800
1086	6330	1.5316674	1300
1086	6379	1.5321298	800
1086	6420	1.5325922	300
1086	6476	1.5328946	0
1086	6492	1.5329618	1
1086	6581	1.5334906	0
1087	4855	1.5214786	0
1087	5152	1.5235882	0
1087	5517	1.526169	0
1087	5579	1.5266314	0
1087	5913	1.5287002	0
1087	5988	1.5291626	0
1087	6078	1.529625	0
1087	6165	1.5300874	0
1087	6221	1.5307426	0
1087	6276	1.531205	0
1087	6330	1.5316674	0
1087	6379	1.5321298	0
1087	6420	1.5325922	0
1087	6476	1.5328946	0
1087	6488	1.5329618	0
1087	6581	1.5334906	0
1094	4114	1.5175922	0
1094	4855	1.5214786	0
1094	4855	1.5214786	0
1094	4858	1.5214786	0
1094	5152	1.5235882	0
1094	5152	1.5235882	0
1094	5517	1.526169	0
1094	5517	1.526169	0
1094	5579	1.5266314	0
1094	5579	1.5266314	0
1094	5913	1.5287002	0
1094	5913	1.5287002	0
1094	5988	1.5291626	0
1094	5988	1.5291626	0
1094	6078	1.529625	0
1094	6078	1.529625	0
1094	6488	1.5329618	0
1094	6492	1.5329618	0
0	1900	1.009395	1102
0	4564	1.5203334	1307
1	723	1.0010318	364
1	3446	1.5133174	314
2	1900	1.009395	0.0083632
2	4564	1.5203334	0.007016
3	39	1	1
3	1900	1.009395	0
3	3300	1.5125182	1
3	4564	1.5203334	0
13	51	1	1
18	81	1.0000576	64
18	444	1.0003858	66
18	738	1.0010894	64
18	831	1.001443	422
18	1338	1.0044118	64
18	1882	1.0093086	64
18	1933	1.0094526	64
18	1958	1.0095198	64
18	2475	1.0125758	64
18	3321	1.5125774	66
18	3461	1.513375	64
18	3574	1.5136886	372
18	3969	1.5171422	64
18	4475	1.520083	64
18	4588	1.520391	64
18	4644	1.5204582	64
18	5065	1.5231542	64
19	185	1.000125	64
19	267	1.0001922	64
19	333	1.0002594	64
19	397	1.0003266	64
19	718	1.0010318	66
19	1105	1.0027092	64
19	1319	1.0043542	558
19	1873	1.009251	558
19	1896	1.009395	160
19	2408	1.012451	64
19	2450	1.0125182	64
19	3441	1.5133174	66
19	3846	1.5154366	64
19	3960	1.5170846	558
19	4452	1.5200254	558
19	4560	1.5203334	365
19	5021	1.5230294	64
19	5048	1.5230966	64
20	185	1.000125	64
20	267	1.0001922	64
20	333	1.0002594	64
20	397	1.0003266	64
20	718	1.0010318	66
20	1105	1.0027092	64
20	1319	1.0043542	558
20	1873	1.009251	558
20	1896	1.009395	160
20	2408	1.012451	64
20	2450	1.0125182	64
20	3441	1.5133174	66
20	3846	1.5154366	64
20	3960	1.5170846	558
20	4452	1.5200254	558
20	4560	1.5203334	365
20	5021	1.5230294	64
20	5048	1.5230966	64
23	69	1	64
23	407	1.0003266	66
23	726	1.0010318	64
23	729	1.0010318	422
23	1325	1.0043542	64
23	1879	1.009251	64
23	1905	1.009395	64
[...]
649	2425	1.0124878	316582
649	2428	1.0124878	316582
649	2815	1.0143894	316583
650	1069	1.0025534	250001
651	48	1	0
651	1065	1.0025534	250411
651	1069	1.0025534	250411
651	1691	1.0077926	250911
651	2425	1.0124878	251047
651	2428	1.0124878	251047
651	2815	1.0143894	251048
652	1065	1.0025534	250410
652	1604	1.006935	250411
652	1691	1.0077926	250411
652	2425	1.0124878	250911
652	2798	1.0143222	251047
652	2815	1.0143894	251047
653	1065	1.0025534	250001
653	1604	1.006935	250357
653	1691	1.0077926	250357
653	2425	1.0124878	250357
653	2798	1.0143222	250358
653	2815	1.0143894	250358
654	1069	1.0025534	356
654	1604	1.006935	0
654	2428	1.0124878	1
654	2798	1.0143222	0
655	1604	1.006935	0
655	1691	1.0077926	0
655	2425	1.0124878	0
655	2798	1.0143222	0
655	2815	1.0143894	0
662	48	1	0
662	1065	1.0025534	0
662	1069	1.0025534	0
662	1691	1.0077926	0
662	1691	1.0077926	0
662	2425	1.0124878	0
662	2425	1.0124878	0
662	2428	1.0124878	0
662	2815	1.0143894	0
664	1604	1.006935	1000
664	2798	1.0143222	1500
666	1604	1.006935	0.0043816
667	1604	1.006935	0.0005477
668	1604	1.006935	0.6567977
669	1604	1.006935	2.6277385
671	499	1.000468	65535
671	829	1.0013036	65535
671	2122	1.0115452	65535
672	49	1	65535
672	499	1.000468	65535
672	503	1.000468	65535
672	966	1.0021612	65535
672	1248	1.0039108	65535
672	1332	1.0043732	65535
672	1631	1.0073492	65535
672	1701	1.0078116	65535
672	1722	1.0078828	65535
672	1725	1.0078828	65535
672	2149	1.0116124	65535
673	49	1	65535
673	499	1.000468	315623
673	499	1.000468	315623
673	503	1.000468	315623
673	966	1.0021612	316123
673	1248	1.0039108	316623
673	1332	1.0043732	317123
673	1631	1.0073492	317623
673	1701	1.0078116	318123
673	1722	1.0078828	318134
673	1725	1.0078828	318134
673	2149	1.0116124	318135
674	503	1.000468	250001
675	49	1	0
675	499	1.000468	250088
675	503	1.000468	250088
675	966	1.0021612	250588
675	1248	1.0039108	251088
675	1332	1.0043732	251588
675	1631	1.0073492	252088
675	1701	1.0078116	252588
675	1722	1.0078828	252599
675	1725	1.0078828	252599
675	2149	1.0116124	252600
676	499	1.000468	250087
676	829	1.0013036	250088
676	966	1.0021612	250088
676	1248	1.0039108	250588
676	1332	1.0043732	251088
676	1631	1.0073492	251588
676	1701	1.0078116	252088
676	1722	1.0078828	252588
676	2122	1.0115452	252599
676	2149	1.0116124	252599
677	499	1.000468	250001
677	829	1.0013036	250329
677	966	1.0021612	250329
677	1248	1.0039108	250329
677	1332	1.0043732	250329
677	1631	1.0073492	250329
677	1701	1.0078116	250329
677	1722	1.0078828	250329
677	2122	1.0115452	250330
677	2149	1.0116124	250330
678	503	1.000468	328
678	829	1.0013036	0
678	1725	1.0078828	1
678	2122	1.0115452	0
679	829	1.0013036	0
679	966	1.0021612	0
679	1248	1.0039108	0
679	1332	1.0043732	0
679	1631	1.0073492	0
679	1701	1.0078116	0
679	1722	1.0078828	0
679	2122	1.0115452	0
679	2149	1.0116124	0
686	49	1	0
686	499	1.000468	0
686	503	1.000468	0
686	966	1.0021612	0
686	966	1.0021612	0
686	1248	1.0039108	0
686	1248	1.0039108	0
686	1332	1.0043732	0
686	1332	1.0043732	0
686	1631	1.0073492	0
686	1631	1.0073492	0
686	1701	1.0078116	0
686	1701	1.0078116	0
686	1722	1.0078828	0
686	1722	1.0078828	0
686	1725	1.0078828	0
686	2149	1.0116124	0
688	829	1.0013036	1000
688	2122	1.0115452	1500
690	829	1.0013036	0.0008356
691	829	1.0013036	0.00010445
692	829	1.0013036	0.65635445
693	829	1.0013036	2.62552225
695	545	1.0005368	65535
695	923	1.001902	65535
695	2677	1.0134164	65535
696	50	1	65535
696	545	1.0005368	65535
696	549	1.0005368	65535
696	1121	1.0027596	65535
696	1414	1.0053652	65535
696	1485	1.0058276	65535
696	1844	1.0089516	65535
696	1914	1.009414	65535
696	2015	1.0098764	65535
696	2050	1.0103388	65535
696	2345	1.0123148	65535
696	2348	1.0123148	65535
696	2690	1.0134836	65535
697	50	1	65535
697	545	1.0005368	315640
697	545	1.0005368	315640
697	549	1.0005368	315640
697	1121	1.0027596	316140
697	1414	1.0053652	316640
697	1485	1.0058276	317140
697	1844	1.0089516	317640
697	1914	1.009414	318140
697	2015	1.0098764	318640
697	2050	1.0103388	319140
697	2345	1.0123148	319543
697	2348	1.0123148	319543
697	2690	1.0134836	319544
698	549	1.0005368	250001
699	50	1	0
699	545	1.0005368	250105
699	549	1.0005368	250105
699	1121	1.0027596	250605
699	1414	1.0053652	251105
699	1485	1.0058276	251605
699	1844	1.0089516	252105
699	1914	1.009414	252605
699	2015	1.0098764	253105
699	2050	1.0103388	253605
699	2345	1.0123148	254008
699	2348	1.0123148	254008
699	2690	1.0134836	254009
700	545	1.0005368	250104
700	923	1.001902	250105
700	1121	1.0027596	250105
700	1414	1.0053652	250605
700	1485	1.0058276	251105
700	1844	1.0089516	251605
700	1914	1.009414	252105
700	2015	1.0098764	252605
700	2050	1.0103388	253105
700	2345	1.0123148	253605
700	2677	1.0134164	254008
700	2690	1.0134836	254008
701	545	1.0005368	250001
701	923	1.001902	250320
701	1121	1.0027596	250320
701	1414	1.0053652	250320
701	1485	1.0058276	250320
701	1844	1.0089516	250320
701	1914	1.009414	250320
701	2015	1.0098764	250320
701	2050	1.0103388	250320
701	2345	1.0123148	250320
701	2677	1.0134164	250321
701	2690	1.0134836	250321
702	549	1.0005368	319
702	923	1.001902	0
702	2348	1.0123148	1
702	2677	1.0134164	0
703	923	1.001902	0
703	1121	1.0027596	0
703	1414	1.0053652	0
703	1485	1.0058276	0
703	1844	1.0089516	0
703	1914	1.009414	0
703	2015	1.0098764	0
703	2050	1.0103388	0
703	2345	1.0123148	0
703	2677	1.0134164	0
703	2690	1.0134836	0
710	50	1	0
710	545	1.0005368	0
710	549	1.0005368	0
710	1121	1.0027596	0
710	1121	1.0027596	0
710	1414	1.0053652	0
710	1414	1.0053652	0
710	1485	1.0058276	0
710	1485	1.0058276	0
710	1844	1.0089516	0
710	1844	1.0089516	0
710	1914	1.009414	0
710	1914	1.009414	0
710	2015	1.0098764	0
710	2015	1.0098764	0
710	2050	1.0103388	0
710	2050	1.0103388	0
710	2345	1.0123148	0
710	2345	1.0123148	0
710	2348	1.0123148	0
710	2690	1.0134836	0
712	923	1.001902	1000
712	2677	1.0134164	1500
714	923	1.001902	0.0013652
715	923	1.001902	0.00017065
716	923	1.001902	0.65642065
717	923	1.001902	2.62585325
863	3269	1.5118496	65535
863	3352	1.512666	65535
863	4529	1.5202548	65535
864	3238	1.5116124	65535
864	3269	1.5118496	65535
864	3273	1.5118496	65535
864	3522	1.5135236	65535
864	3707	1.5146572	65535
864	3760	1.5151196	65535
864	3998	1.5172396	65535
864	4145	1.517702	65535
864	4213	1.5181644	65535
864	4241	1.5183364	65535
864	4244	1.5183364	65535
864	4548	1.520322	65535
865	3238	1.5116124	65535
865	3269	1.5118496	443468
865	3269	1.5118496	443468
865	3273	1.5118496	443468
865	3522	1.5135236	443968
865	3707	1.5146572	444468
865	3760	1.5151196	444968
865	3998	1.5172396	445468
865	4145	1.517702	445968
865	4213	1.5181644	446468
865	4241	1.5183364	446605
865	4244	1.5183364	446605
865	4548	1.520322	446606
866	3273	1.5118496	377904
867	3238	1.5116124	0
867	3269	1.5118496	377933
867	3273	1.5118496	377933
867	3522	1.5135236	378433
867	3707	1.5146572	378933
867	3760	1.5151196	379433
867	3998	1.5172396	379933
867	4145	1.517702	380433
867	4213	1.5181644	380933
867	4241	1.5183364	381070
867	4244	1.5183364	381070
867	4548	1.520322	381071
868	3269	1.5118496	377932
868	3352	1.512666	377933
868	3522	1.5135236	377933
868	3707	1.5146572	378433
868	3760	1.5151196	378933
868	3998	1.5172396	379433
868	4145	1.517702	379933
868	4213	1.5181644	380433
868	4241	1.5183364	380933
868	4529	1.5202548	381070
868	4548	1.520322	381070
869	3269	1.5118496	377904
869	3352	1.512666	378234
869	3522	1.5135236	378234
869	3707	1.5146572	378234
869	3760	1.5151196	378234
869	3998	1.5172396	378234
869	4145	1.517702	378234
869	4213	1.5181644	378234
869	4241	1.5183364	378234
869	4529	1.5202548	378235
869	4548	1.520322	378235
870	3273	1.5118496	330
870	3352	1.512666	0
870	4244	1.5183364	1
870	4529	1.5202548	0
871	3352	1.512666	0
871	3522	1.5135236	0
871	3707	1.5146572	0
871	3760	1.5151196	0
871	3998	1.5172396	0
871	4145	1.517702	0
871	4213	1.5181644	0
871	4241	1.5183364	0
871	4529	1.5202548	0
871	4548	1.520322	0
878	3238	1.5116124	0
878	3269	1.5118496	0
878	3273	1.5118496	0
878	3522	1.5135236	0
878	3522	1.5135236	0
878	3707	1.5146572	0
878	3707	1.5146572	0
878	3760	1.5151196	0
878	3760	1.5151196	0
878	3998	1.5172396	0
878	3998	1.5172396	0
878	4145	1.517702	0
878	4145	1.517702	0
878	4213	1.5181644	0
878	4213	1.5181644	0
878	4241	1.5183364	0
878	4241	1.5183364	0
878	4244	1.5183364	0
878	4548	1.520322	0
880	3352	1.512666	1000
880	4529	1.5202548	1500
882	3352	1.512666	0.0008164
883	3352	1.512666	0.00010205
884	3352	1.512666	0.65635205
885	3352	1.512666	2.62551025
911	3444	1.5133174	65535
911	3849	1.5154366	65535
911	5024	1.5230294	65535
912	3301	1.5125182	65535
912	3444	1.5133174	65535
912	3448	1.5133174	65535
912	3963	1.5170846	65535
912	4455	1.5200254	65535
912	4563	1.5203334	65535
912	4566	1.5203334	65535
912	5051	1.5230966	65535
913	3301	1.5125182	65535
913	3444	1.5133174	443724
913	3444	1.5133174	443724
913	3448	1.5133174	443724
913	3963	1.5170846	444224
913	4455	1.5200254	444724
913	4563	1.5203334	445031
913	4566	1.5203334	445031
913	5051	1.5230966	445032
914	3448	1.5133174	378130
915	3301	1.5125182	0
915	3444	1.5133174	378189
915	3448	1.5133174	378189
915	3963	1.5170846	378689
915	4455	1.5200254	379189
915	4563	1.5203334	379496
915	4566	1.5203334	379496
915	5051	1.5230966	379497
916	3444	1.5133174	378188
916	3849	1.5154366	378189
916	3963	1.5170846	378189
916	4455	1.5200254	378689
916	4563	1.5203334	379189
916	5024	1.5230294	379496
916	5051	1.5230966	379496
917	3444	1.5133174	378130
917	3849	1.5154366	378444
917	3963	1.5170846	378444
917	4455	1.5200254	378444
917	4563	1.5203334	378444
917	5024	1.5230294	378445
917	5051	1.5230966	378445
918	3448	1.5133174	314
918	3849	1.5154366	0
918	4566	1.5203334	1
918	5024	1.5230294	0
919	3849	1.5154366	0
919	3963	1.5170846	0
919	4455	1.5200254	0
919	4563	1.5203334	0
919	5024	1.5230294	0
919	5051	1.5230966	0
926	3301	1.5125182	0
926	3444	1.5133174	0
926	3448	1.5133174	0
926	3963	1.5170846	0
926	3963	1.5170846	0
926	4455	1.5200254	0
926	4455	1.5200254	0
926	4563	1.5203334	0
926	4563	1.5203334	0
926	4566	1.5203334	0
926	5051	1.5230966	0
928	3849	1.5154366	1000
928	5024	1.5230294	1500
930	3849	1.5154366	0.0021192
931	3849	1.5154366	0.0002649
932	3849	1.5154366	0.6565149
933	3849	1.5154366	2.6263245
935	3472	1.5133862	65535
935	3943	1.5167566	65535
935	6037	1.5295286	65535
936	3343	1.5126526	65535
936	3472	1.5133862	65535
936	3476	1.5133862	65535
936	4123	1.5176142	65535
936	4702	1.5208646	65535
936	4818	1.521327	65535
936	5178	1.5239542	65535
936	5295	1.5244166	65535
936	5357	1.5250134	65535
936	5412	1.5254758	65535
936	5598	1.526863	65535
936	5660	1.5273254	65535
936	5722	1.5277878	65535
936	5750	1.528007	65535
936	5753	1.528007	65535
936	6054	1.5295958	65535
937	3343	1.5126526	65535
937	3472	1.5133862	443758
937	3472	1.5133862	443758
937	3476	1.5133862	443758
937	4123	1.5176142	444258
937	4702	1.5208646	444758
937	4818	1.521327	445258
937	5178	1.5239542	445758
937	5295	1.5244166	446258
937	5357	1.5250134	446758
937	5412	1.5254758	447258
937	5598	1.526863	447758
937	5660	1.5273254	448258
937	5722	1.5277878	448758
937	5750	1.528007	448954
937	5753	1.528007	448954
937	6054	1.5295958	448955
938	3476	1.5133862	378164
939	3343	1.5126526	0
939	3472	1.5133862	378223
939	3476	1.5133862	378223
939	4123	1.5176142	378723
939	4702	1.5208646	379223
939	4818	1.521327	379723
939	5178	1.5239542	380223
939	5295	1.5244166	380723
939	5357	1.5250134	381223
939	5412	1.5254758	381723
939	5598	1.526863	382223
939	5660	1.5273254	382723
939	5722	1.5277878	383223
939	5750	1.528007	383419
939	5753	1.528007	383419
939	6054	1.5295958	383420
940	3472	1.5133862	378222
940	3943	1.5167566	378223
940	4123	1.5176142	378223
940	4702	1.5208646	378723
940	4818	1.521327	379223
940	5178	1.5239542	379723
940	5295	1.5244166	380223
940	5357	1.5250134	380723
940	5412	1.5254758	381223
940	5598	1.526863	381723
940	5660	1.5273254	382223
940	5722	1.5277878	382723
940	5750	1.528007	383223
940	6037	1.5295286	383419
940	6054	1.5295958	383419
941	3472	1.5133862	378164
941	3943	1.5167566	378493
941	4123	1.5176142	378493
941	4702	1.5208646	378493
941	4818	1.521327	378493
941	5178	1.5239542	378493
941	5295	1.5244166	378493
941	5357	1.5250134	378493
941	5412	1.5254758	378493
941	5598	1.526863	378493
941	5660	1.5273254	378493
941	5722	1.5277878	378493
941	5750	1.528007	378493
941	6037	1.5295286	378494
941	6054	1.5295958	378494
942	3476	1.5133862	329
942	3943	1.5167566	0
942	5753	1.528007	1
942	6037	1.5295286	0
943	3943	1.5167566	0
943	4123	1.5176142	0
943	4702	1.5208646	0
943	4818	1.521327	0
943	5178	1.5239542	0
943	5295	1.5244166	0
943	5357	1.5250134	0
943	5412	1.5254758	0
943	5598	1.526863	0
943	5660	1.5273254	0
943	5722	1.5277878	0
943	5750	1.528007	0
943	6037	1.5295286	0
943	6054	1.5295958	0
950	3343	1.5126526	0
950	3472	1.5133862	0
950	3476	1.5133862	0
950	4123	1.5176142	0
950	4123	1.5176142	0
950	4702	1.5208646	0
950	4702	1.5208646	0
950	4818	1.521327	0
950	4818	1.521327	0
950	5178	1.5239542	0
950	5178	1.5239542	0
950	5295	1.5244166	0
950	5295	1.5244166	0
950	5357	1.5250134	0
950	5357	1.5250134	0
950	5412	1.5254758	0
950	5412	1.5254758	0
950	5598	1.526863	0
950	5598	1.526863	0
950	5660	1.5273254	0
950	5660	1.5273254	0
950	5722	1.5277878	0
950	5722	1.5277878	0
950	5750	1.528007	0
950	5750	1.528007	0
950	5753	1.528007	0
950	6054	1.5295958	0
952	3943	1.5167566	1000
952	6037	1.5295286	1500
954	3943	1.5167566	0.0033704
955	3943	1.5167566	0.0004213
956	3943	1.5167566	0.6566713
957	3943	1.5167566	2.6271065
1007	3585	1.5137356	65535
1007	3740	1.5147916	65535
1007	4586	1.5203892	65535
1008	3499	1.5134836	65535
1008	3585	1.5137356	65535
1008	3589	1.5137356	65535
1008	3855	1.5156492	65535
1008	4281	1.5185156	65535
1008	4284	1.5185156	65535
1008	4638	1.5204564	65535
1009	3499	1.5134836	65535
1009	3585	1.5137356	443940
1009	3585	1.5137356	443940
1009	3589	1.5137356	443940
1009	3855	1.5156492	444440
1009	4281	1.5185156	444763
1009	4284	1.5185156	444763
1009	4638	1.5204564	444764
1010	3589	1.5137356	378371
1011	3499	1.5134836	0
1011	3585	1.5137356	378405
1011	3589	1.5137356	378405
1011	3855	1.5156492	378905
1011	4281	1.5185156	379228
1011	4284	1.5185156	379228
1011	4638	1.5204564	379229
1012	3585	1.5137356	378404
1012	3740	1.5147916	378405
1012	3855	1.5156492	378405
1012	4281	1.5185156	378905
1012	4586	1.5203892	379228
1012	4638	1.5204564	379228
1013	3585	1.5137356	378371
1013	3740	1.5147916	378755
1013	3855	1.5156492	378755
1013	4281	1.5185156	378755
1013	4586	1.5203892	378756
1013	4638	1.5204564	378756
1014	3589	1.5137356	384
1014	3740	1.5147916	0
1014	4284	1.5185156	1
1014	4586	1.5203892	0
1015	3740	1.5147916	0
1015	3855	1.5156492	0
1015	4281	1.5185156	0
1015	4586	1.5203892	0
1015	4638	1.5204564	0
1022	3499	1.5134836	0
1022	3585	1.5137356	0
1022	3589	1.5137356	0
1022	3855	1.5156492	0
1022	3855	1.5156492	0
1022	4281	1.5185156	0
1022	4281	1.5185156	0
1022	4284	1.5185156	0
1022	4638	1.5204564	0
1024	3740	1.5147916	1000
1024	4586	1.5203892	1500
1026	3740	1.5147916	0.001056
1027	3740	1.5147916	0.000132
1028	3740	1.5147916	0.656382
1029	3740	1.5147916	2.62566
1055	4022	1.5172894	65535
1055	4743	1.520999	65535
1055	5214	1.5240886	65535
1056	3664	1.5143894	65535
1056	4022	1.5172894	65535
1056	4026	1.5172894	65535
1056	4755	1.5211206	65535
1056	4758	1.5211206	65535
1056	5246	1.5241558	65535
1057	3664	1.5143894	65535
1057	4022	1.5172894	444343
1057	4022	1.5172894	444343
1057	4026	1.5172894	444343
1057	4755	1.5211206	444383
1057	4758	1.5211206	444383
1057	5246	1.5241558	444384
1058	4026	1.5172894	378598
1059	3664	1.5143894	0
1059	4022	1.5172894	378808
1059	4026	1.5172894	378808
1059	4755	1.5211206	378848
1059	4758	1.5211206	378848
1059	5246	1.5241558	378849
1060	4022	1.5172894	378807
1060	4743	1.520999	378808
1060	4755	1.5211206	378808
1060	5214	1.5240886	378848
1060	5246	1.5241558	378848
1061	4022	1.5172894	378598
1061	4743	1.520999	378942
1061	4755	1.5211206	378942
1061	5214	1.5240886	378943
1061	5246	1.5241558	378943
1062	4026	1.5172894	344
1062	4743	1.520999	0
1062	4758	1.5211206	1
1062	5214	1.5240886	0
1063	4743	1.520999	0
1063	4755	1.5211206	0
1063	5214	1.5240886	0
1063	5246	1.5241558	0
1070	3664	1.5143894	0
1070	4022	1.5172894	0
1070	4026	1.5172894	0
1070	4755	1.5211206	0
1070	4755	1.5211206	0
1070	4758	1.5211206	0
1070	5246	1.5241558	0
1072	4743	1.520999	1000
1072	5214	1.5240886	1500
1074	4743	1.520999	0.0037096
1075	4743	1.520999	0.0004637
1076	4743	1.520999	0.6567137
1077	4743	1.520999	2.6273185
1103	4440	1.5200086	65535
1103	4928	1.5217094	65535
1103	6538	1.5331926	65535
1104	4050	1.5173222	65535
1104	4440	1.5200086	65535
1104	4444	1.5200086	65535
1104	5102	1.5233574	65535
1104	5468	1.5259382	65535
1104	5529	1.5264006	65535
1104	5851	1.5284694	65535
1104	5926	1.5289318	65535
1104	6001	1.5293942	65535
1104	6117	1.5298566	65535
1104	6172	1.5305118	65535
1104	6227	1.5309742	65535
1104	6288	1.5314366	65535
1104	6343	1.531899	65535
1104	6391	1.5323614	65535
1104	6426	1.5326638	65535
1104	6429	1.5326638	65535
1104	6550	1.5332598	65535
1105	4050	1.5173222	65535
1105	4440	1.5200086	444934
1105	4440	1.5200086	444934
1105	4444	1.5200086	444934
1105	5102	1.5233574	445434
1105	5468	1.5259382	445934
1105	5529	1.5264006	446434
1105	5851	1.5284694	446934
1105	5926	1.5289318	447434
1105	6001	1.5293942	447934
1105	6117	1.5298566	448434
1105	6172	1.5305118	448934
1105	6227	1.5309742	449434
1105	6288	1.5314366	449934
1105	6343	1.531899	450434
1105	6391	1.5323614	450934
1105	6426	1.5326638	451234
1105	6429	1.5326638	451234
1105	6550	1.5332598	451235
1106	4444	1.5200086	379331
1107	4050	1.5173222	0
1107	4440	1.5200086	379399
1107	4444	1.5200086	379399
1107	5102	1.5233574	379899
1107	5468	1.5259382	380399
1107	5529	1.5264006	380899
1107	5851	1.5284694	381399
1107	5926	1.5289318	381899
1107	6001	1.5293942	382399
1107	6117	1.5298566	382899
1107	6172	1.5305118	383399
1107	6227	1.5309742	383899
1107	6288	1.5314366	384399
1107	6343	1.531899	384899
1107	6391	1.5323614	385399
1107	6426	1.5326638	385699
1107	6429	1.5326638	385699
1107	6550	1.5332598	385700
1108	4440	1.5200086	379398
1108	4928	1.5217094	379399
1108	5102	1.5233574	379399
1108	5468	1.5259382	379899
1108	5529	1.5264006	380399
1108	5851	1.5284694	380899
1108	5926	1.5289318	381399
1108	6001	1.5293942	381899
1108	6117	1.5298566	382399
1108	6172	1.5305118	382899
1108	6227	1.5309742	383399
1108	6288	1.5314366	383899
1108	6343	1.531899	384399
1108	6391	1.5323614	384899
1108	6426	1.5326638	385399
1108	6538	1.5331926	385699
1108	6550	1.5332598	385699
1109	4440	1.5200086	379331
1109	4928	1.5217094	379690
1109	5102	1.5233574	379690
1109	5468	1.5259382	379690
1109	5529	1.5264006	379690
1109	5851	1.5284694	379690
1109	5926	1.5289318	379690
1109	6001	1.5293942	379690
1109	6117	1.5298566	379690
1109	6172	1.5305118	379690
1109	6227	1.5309742	379690
1109	6288	1.5314366	379690
1109	6343	1.531899	379690
1109	6391	1.5323614	379690
1109	6426	1.5326638	379690
1109	6538	1.5331926	379691
1109	6550	1.5332598	379691
1110	4444	1.5200086	359
1110	4928	1.5217094	0
1110	6429	1.5326638	1
1110	6538	1.5331926	0
1111	4928	1.5217094	0
1111	5102	1.5233574	0
1111	5468	1.5259382	0
1111	5529	1.5264006	0
1111	5851	1.5284694	0
1111	5926	1.5289318	0
1111	6001	1.5293942	0
1111	6117	1.5298566	0
1111	6172	1.5305118	0
1111	6227	1.5309742	0
1111	6288	1.5314366	0
1111	6343	1.531899	0
1111	6391	1.5323614	0
1111	6426	1.5326638	0
1111	6538	1.5331926	0
1111	6550	1.5332598	0
1118	4050	1.5173222	0
1118	4440	1.5200086	0
1118	4444	1.5200086	0
1118	5102	1.5233574	0
1118	5102	1.5233574	0
1118	5468	1.5259382	0
1118	5468	1.5259382	0
1118	5529	1.5264006	0
1118	5529	1.5264006	0
1118	5851	1.5284694	0
1118	5851	1.5284694	0
1118	5926	1.5289318	0
1118	5926	1.5289318	0
1118	6001	1.5293942	0
1118	6001	1.5293942	0
1118	6117	1.5298566	0
1118	6117	1.5298566	0
1118	6172	1.5305118	0
1118	6172	1.5305118	0
1118	6227	1.5309742	0
1118	6227	1.5309742	0
1118	6288	1.5314366	0
1118	6288	1.5314366	0
1118	6343	1.531899	0
1118	6343	1.531899	0
1118	6391	1.5323614	0
1118	6391	1.5323614	0
1118	6426	1.5326638	0
1118	6426	1.5326638	0
1118	6429	1.5326638	0
1118	6550	1.5332598	0
1120	4928	1.5217094	1000
1120	6538	1.5331926	1500
1122	4928	1.5217094	0.0017008
1123	4928	1.5217094	0.0002126
1124	4928	1.5217094	0.6564626
1125	4928	1.5217094	2.626063
