version 2
run General-0-20161216-09:28:49-5972
attr configname General
attr datetime 20161216-09:28:49
attr experiment General
attr inifile "D:\\desenvolvimento\\omnet\\omnetpp-5.0\\samples\\inet\\src\\inet\\applications\\simbo\\Simulation\\Quinto\\net2.ini"
attr iterationvars ""
attr iterationvars2 $repetition=0
attr measurement ""
attr network net2
attr processid 5972
attr repetition 0
attr replication #0
attr resultdir results
attr runnumber 0
attr seedset 0
param **.comp1[*].numTcpApps 2
param **.comp1[*].tcpApp[0].connectAddress "\"server\""
param **.comp1[*].tcpApp[0].connectPort 80
param **.comp1[*].tcpApp[0].dataTransferMode "\"object\""
param **.comp1[*].tcpApp[0].idleInterval 0.5s
param **.comp1[*].tcpApp[0].numRequestsPerSession 1
param **.comp1[*].tcpApp[0].reconnectInterval 0.2s
param **.comp1[*].tcpApp[0].replyLength exponential(2000B)
param **.comp1[*].tcpApp[0].requestLength truncnormal(350B,20B)
param **.comp1[*].tcpApp[0].thinkTime 0.1s
param **.comp1[*].tcpApp[0].typename "\"TCPBasicClientApp\""
param **.comp1[*].tcpApp[1].connectPort 10022
param **.comp1[*].tcpApp[1].dataTransferMode "\"object\""
param **.comp1[*].tcpApp[1].infectado false
param **.comp1[*].tcpApp[1].typename "\"BotnetApp\""
param **.comp[*].numTcpApps 2
param **.comp[*].tcpApp[0].connectAddress "\"server\""
param **.comp[*].tcpApp[0].connectPort 80
param **.comp[*].tcpApp[0].dataTransferMode "\"object\""
param **.comp[*].tcpApp[0].idleInterval 0.5s
param **.comp[*].tcpApp[0].numRequestsPerSession 1
param **.comp[*].tcpApp[0].reconnectInterval 0.2s
param **.comp[*].tcpApp[0].replyLength exponential(2000B)
param **.comp[*].tcpApp[0].requestLength truncnormal(350B,20B)
param **.comp[*].tcpApp[0].thinkTime 0.1s
param **.comp[*].tcpApp[0].typename "\"TCPBasicClientApp\""
param **.comp[*].tcpApp[1].connectPort 10022
param **.comp[*].tcpApp[1].dataTransferMode "\"object\""
param **.comp[*].tcpApp[1].infectado false
param **.comp[*].tcpApp[1].typename "\"BotnetApp\""
param **.controleSuper.jacamo false
param **.controleSuper.matlab true
param **.inicial.numTcpApps 2
param **.inicial.tcpApp[0].connectAddress "\"server\""
param **.inicial.tcpApp[0].connectPort 80
param **.inicial.tcpApp[0].dataTransferMode "\"object\""
param **.inicial.tcpApp[0].idleInterval 0.5s
param **.inicial.tcpApp[0].numRequestsPerSession 1
param **.inicial.tcpApp[0].reconnectInterval 0.2s
param **.inicial.tcpApp[0].replyLength exponential(2000B)
param **.inicial.tcpApp[0].requestLength truncnormal(350B,20B)
param **.inicial.tcpApp[0].thinkTime 0.1s
param **.inicial.tcpApp[0].typename "\"TCPBasicClientApp\""
param **.inicial.tcpApp[1].connectPort 10022
param **.inicial.tcpApp[1].dataTransferMode "\"object\""
param **.inicial.tcpApp[1].infectado false
param **.inicial.tcpApp[1].typename "\"BotnetApp\""
param **.numPingApps 1
param **.pingApp[*].count 1
param **.pingApp[*].destAddr "\"*\""
param **.pingApp[*].hopLimit 2
param **.pingApp[*].sleepDuration 0s
param **.pingApp[*].startTime 0s
param **.pingApp[*].typename BotnetPing
param **.server.numTcpApps 2
param **.server.tcpApp[0].dataTransferMode "\"object\""
param **.server.tcpApp[0].localPort 80
param **.server.tcpApp[0].typename "\"TCPGenericSrvApp\""
param **.server.tcpApp[1].connectPort 10022
param **.server.tcpApp[1].dataTransferMode "\"object\""
param **.server.tcpApp[1].infectado false
param **.server.tcpApp[1].typename "\"BotnetApp\""
param **.tcp.advertisedWindow 65535
param **.tcp.delayedAcksEnabled false
param **.tcp.increasedIWEnabled false
param **.tcp.limitedTransmitEnabled false
param **.tcp.mss 500
param **.tcp.nagleEnabled true
param **.tcp.recordStats true
param **.tcp.sackSupport true
param **.tcp.tcpAlgorithmClass "\"TCPReno\""
param **.tcp.timestampSupport false
param **.tcp.windowScalingSupport false

scalar net2.inicial.networkLayer.arp 	sentReply:count 	0
attr title  "ARP replies sent, count"
scalar net2.inicial.networkLayer.arp 	sentReq:count 	1
attr title  "ARP request sent, count"
scalar net2.inicial.networkLayer.arp 	failedARPResolution:count 	0
attr title  "ARP failed resolutions, count"
scalar net2.inicial.networkLayer.arp 	completedARPResolution:count 	1
attr title  "ARP completed resolutions, count"
scalar net2.inicial.networkLayer.arp 	initiatedARPResolution:count 	1
attr title  "ARP initiated resolutions, count"
scalar net2.inicial.lo0.lo 	droppedPkBitError:count 	0
attr interpolationmode  none
attr source  dropPkBitError
attr title  "packets dropped/bit error, count"
scalar net2.inicial.lo0.lo 	droppedPkBitError:sum(packetBytes) 	0
attr interpolationmode  none
attr source  dropPkBitError
attr title  "packets dropped/bit error, sum(packetBytes)"
scalar net2.inicial.lo0.lo 	rcvdPkFromHL:count 	0
attr interpolationmode  none
attr source  packetReceivedFromUpper
attr title  "packets received from higher layer, count"
scalar net2.inicial.lo0.lo 	rcvdPkFromHL:sum(packetBytes) 	0
attr interpolationmode  none
attr source  packetReceivedFromUpper
attr title  "packets received from higher layer, sum(packetBytes)"
scalar net2.inicial.lo0.lo 	passedUpPk:count 	0
attr interpolationmode  none
attr source  packetSentToUpper
attr title  "packets passed to higher layer, count"
scalar net2.inicial.lo0.lo 	passedUpPk:sum(packetBytes) 	0
attr interpolationmode  none
attr source  packetSentToUpper
attr title  "packets passed to higher layer, sum(packetBytes)"
scalar net2.inicial.eth[0].mac 	"simulated time" 	2
scalar net2.inicial.eth[0].mac 	full-duplex 	1
scalar net2.inicial.eth[0].mac 	"frames/sec sent" 	8.5
scalar net2.inicial.eth[0].mac 	"frames/sec rcvd" 	9
scalar net2.inicial.eth[0].mac 	"bits/sec sent" 	7032
scalar net2.inicial.eth[0].mac 	"bits/sec rcvd" 	14116
scalar net2.inicial.eth[0].mac 	"rx channel idle (%)" 	99.85308
scalar net2.inicial.eth[0].mac 	"rx channel utilization (%)" 	0.14692
scalar net2.inicial.eth[0].mac 	rxPkFromHL:count 	17
attr interpolationmode  none
attr source  rxPkFromHL
attr title  "packet bytes from higher layer, count"
scalar net2.inicial.eth[0].mac 	rxPkFromHL:sum(packetBytes) 	1758
attr interpolationmode  none
attr source  rxPkFromHL
attr title  "packet bytes from higher layer, sum(packetBytes)"
scalar net2.inicial.eth[0].mac 	rxPausePkUnits:count 	0
attr interpolationmode  none
attr title  "pause units received, count"
scalar net2.inicial.eth[0].mac 	rxPausePkUnits:sum 	0
attr interpolationmode  none
attr title  "pause units received, sum"
scalar net2.inicial.eth[0].mac 	txPausePkUnits:count 	0
attr interpolationmode  none
attr title  "pause units sent, count"
scalar net2.inicial.eth[0].mac 	txPausePkUnits:sum 	0
attr interpolationmode  none
attr title  "pause units sent, sum"
scalar net2.inicial.eth[0].mac 	txPk:count 	17
attr interpolationmode  none
attr source  txPk
attr title  "packets transmitted, count"
scalar net2.inicial.eth[0].mac 	txPk:sum(packetBytes) 	1758
attr interpolationmode  none
attr source  txPk
attr title  "packets transmitted, sum(packetBytes)"
scalar net2.inicial.eth[0].mac 	droppedPkNotForUs:count 	0
attr interpolationmode  none
attr source  dropPkNotForUs
attr title  "packets dropped/not for us, count"
scalar net2.inicial.eth[0].mac 	droppedPkNotForUs:sum(packetBytes) 	0
attr interpolationmode  none
attr source  dropPkNotForUs
attr title  "packets dropped/not for us, sum(packetBytes)"
scalar net2.inicial.eth[0].mac 	droppedPkBitError:count 	0
attr interpolationmode  none
attr source  dropPkBitError
attr title  "packets dropped/bit error, count"
scalar net2.inicial.eth[0].mac 	droppedPkBitError:sum(packetBytes) 	0
attr interpolationmode  none
attr source  dropPkBitError
attr title  "packets dropped/bit error, sum(packetBytes)"
scalar net2.inicial.eth[0].mac 	droppedPkIfaceDown:count 	0
attr interpolationmode  none
attr source  dropPkIfaceDown
attr title  "packets dropped/interface down, count"
scalar net2.inicial.eth[0].mac 	droppedPkIfaceDown:sum(packetBytes) 	0
attr interpolationmode  none
attr source  dropPkIfaceDown
attr title  "packets dropped/interface down, sum(packetBytes)"
scalar net2.inicial.eth[0].mac 	rxPkOk:count 	18
attr interpolationmode  none
attr source  rxPkOk
attr title  "packets received OK, count"
scalar net2.inicial.eth[0].mac 	rxPkOk:sum(packetBytes) 	3529
attr interpolationmode  none
attr source  rxPkOk
attr title  "packets received OK, sum(packetBytes)"
scalar net2.inicial.eth[0].mac 	passedUpPk:count 	18
attr interpolationmode  none
attr source  packetSentToUpper
attr title  "packets passed to higher layer, count"
scalar net2.inicial.eth[0].mac 	passedUpPk:sum(packetBytes) 	3529
attr interpolationmode  none
attr source  packetSentToUpper
attr title  "packets passed to higher layer, sum(packetBytes)"
scalar net2.inicial.eth[0].encap 	pauseSent:count 	0
attr title  "pause sent, count"
scalar net2.inicial.eth[0].encap 	pauseSent:sum 	0
attr title  "pause sent, sum"
scalar net2.inicial.eth[0].encap 	decapPk:count 	18
attr interpolationmode  none
attr source  decapPk
attr title  "packets decapsulated, count"
scalar net2.inicial.eth[0].encap 	decapPk:sum(packetBytes) 	3097
attr interpolationmode  none
attr source  decapPk
attr title  "packets decapsulated, sum(packetBytes)"
scalar net2.inicial.eth[0].encap 	encapPk:count 	17
attr interpolationmode  none
attr source  encapPk
attr title  "packets encapsulated, count"
scalar net2.inicial.eth[0].encap 	encapPk:sum(packetBytes) 	1362
attr interpolationmode  none
attr source  encapPk
attr title  "packets encapsulated, sum(packetBytes)"
scalar net2.inicial.tcpApp[0] 	numActiveSessions:max 	1
attr interpolationmode  sample-hold
attr source  sum(connect)
attr title  "number of active sessions, max"
scalar net2.inicial.tcpApp[0] 	numActiveSessions:timeavg 	0.0172102
attr interpolationmode  sample-hold
attr source  sum(connect)
attr title  "number of active sessions, timeavg"
scalar net2.inicial.tcpApp[0] 	numSessions:last 	2
attr source  sum(connect+1)/2
attr title  "total number of sessions, last"
scalar net2.inicial.tcpApp[0] 	sentPk:count 	2
attr interpolationmode  none
attr source  sentPk
attr title  "packets sent, count"
scalar net2.inicial.tcpApp[0] 	sentPk:sum(packetBytes) 	678
attr interpolationmode  none
attr source  sentPk
attr title  "packets sent, sum(packetBytes)"
scalar net2.inicial.tcpApp[0] 	rcvdPk:count 	2
attr interpolationmode  none
attr source  rcvdPk
attr title  "packets received, count"
scalar net2.inicial.tcpApp[0] 	rcvdPk:sum(packetBytes) 	2409
attr interpolationmode  none
attr source  rcvdPk
attr title  "packets received, sum(packetBytes)"
statistic net2.inicial.tcpApp[0] 	endToEndDelay:histogram
field count 2
field mean 0.0076896
field stddev 0.00095261425561452
field sum 0.0153792
field sqrsum 0.00011916737024
field min 0.007016
field max 0.0083632
attr interpolationmode  none
attr source  messageAge(rcvdPk)
attr title  "end-to-end delay, histogram"
attr unit  s
bin	-INF	0
bin	0.0063424	0
bin	0.0064322133333333	0
bin	0.0065220266666667	0
bin	0.00661184	0
bin	0.0067016533333333	0
bin	0.0067914666666667	0
bin	0.00688128	0
bin	0.0069710933333333	1
bin	0.0070609066666667	0
bin	0.00715072	0
bin	0.0072405333333333	0
bin	0.0073303466666667	0
bin	0.00742016	0
bin	0.0075099733333333	0
bin	0.0075997866666667	0
bin	0.0076896	0
bin	0.0077794133333333	0
bin	0.0078692266666667	0
bin	0.00795904	0
bin	0.0080488533333333	0
bin	0.0081386666666667	0
bin	0.00822848	0
bin	0.0083182933333333	1
bin	0.0084081066666667	0
bin	0.00849792	0
bin	0.0085877333333333	0
bin	0.0086775466666667	0
bin	0.00876736	0
bin	0.0088571733333333	0
bin	0.0089469866666667	0
bin	0.0090368	0
scalar net2.inicial.tcpApp[1] 	numActiveSessions:max 	nan
attr interpolationmode  sample-hold
attr source  sum(connect)
attr title  "number of active sessions, max"
scalar net2.inicial.tcpApp[1] 	numActiveSessions:timeavg 	nan
attr interpolationmode  sample-hold
attr source  sum(connect)
attr title  "number of active sessions, timeavg"
scalar net2.inicial.tcpApp[1] 	numSessions:last 	nan
attr source  sum(connect+1)/2
attr title  "total number of sessions, last"
scalar net2.inicial.tcpApp[1] 	sentPk:count 	0
attr interpolationmode  none
attr source  sentPk
attr title  "packets sent, count"
scalar net2.inicial.tcpApp[1] 	sentPk:sum(packetBytes) 	0
attr interpolationmode  none
attr source  sentPk
attr title  "packets sent, sum(packetBytes)"
scalar net2.inicial.tcpApp[1] 	rcvdPk:count 	0
attr interpolationmode  none
attr source  rcvdPk
attr title  "packets received, count"
scalar net2.inicial.tcpApp[1] 	rcvdPk:sum(packetBytes) 	0
attr interpolationmode  none
attr source  rcvdPk
attr title  "packets received, sum(packetBytes)"
statistic net2.inicial.tcpApp[1] 	endToEndDelay:histogram
field count 0
field mean nan
field stddev nan
field sum 0
field sqrsum 0
field min nan
field max nan
attr interpolationmode  none
attr source  messageAge(rcvdPk)
attr title  "end-to-end delay, histogram"
attr unit  s
bin	-INF	0
bin	-0.5	0
bin	-0.46666666666667	0
bin	-0.43333333333333	0
bin	-0.4	0
bin	-0.36666666666667	0
bin	-0.33333333333333	0
bin	-0.3	0
bin	-0.26666666666667	0
bin	-0.23333333333333	0
bin	-0.2	0
bin	-0.16666666666667	0
bin	-0.13333333333333	0
bin	-0.1	0
bin	-0.066666666666667	0
bin	-0.033333333333333	0
bin	0	0
bin	0.033333333333333	0
bin	0.066666666666667	0
bin	0.1	0
bin	0.13333333333333	0
bin	0.16666666666667	0
bin	0.2	0
bin	0.23333333333333	0
bin	0.26666666666667	0
bin	0.3	0
bin	0.33333333333333	0
bin	0.36666666666667	0
bin	0.4	0
bin	0.43333333333333	0
bin	0.46666666666667	0
bin	0.5	0
scalar net2.inicial.pingApp[0] 	numOutOfOrderArrivals:last 	nan
attr interpolationmode  none
attr title  "ping out-of-order arrivals, last"
scalar net2.inicial.pingApp[0] 	pingRxSeq:count 	0
attr interpolationmode  none
attr title  "ping rx seq, count"
scalar net2.inicial.pingApp[0] 	pingTxSeq:count 	0
attr interpolationmode  none
attr title  "ping tx seq, count"
scalar net2.inicial.pingApp[0] 	numLost:last 	nan
attr interpolationmode  none
attr title  "pings lost, last"
statistic net2.inicial.pingApp[0] 	rtt:histogram
field count 0
field mean nan
field stddev nan
field sum 0
field sqrsum 0
field min nan
field max nan
attr interpolationmode  none
attr title  "ping round-trip time, histogram"
attr unit  s
bin	-INF	0
bin	-0.5	0
bin	-0.46666666666667	0
bin	-0.43333333333333	0
bin	-0.4	0
bin	-0.36666666666667	0
bin	-0.33333333333333	0
bin	-0.3	0
bin	-0.26666666666667	0
bin	-0.23333333333333	0
bin	-0.2	0
bin	-0.16666666666667	0
bin	-0.13333333333333	0
bin	-0.1	0
bin	-0.066666666666667	0
bin	-0.033333333333333	0
bin	0	0
bin	0.033333333333333	0
bin	0.066666666666667	0
bin	0.1	0
bin	0.13333333333333	0
bin	0.16666666666667	0
bin	0.2	0
bin	0.23333333333333	0
bin	0.26666666666667	0
bin	0.3	0
bin	0.33333333333333	0
bin	0.36666666666667	0
bin	0.4	0
bin	0.43333333333333	0
bin	0.46666666666667	0
bin	0.5	0
scalar net2.R1.networkLayer.arp 	sentReply:count 	4
attr title  "ARP replies sent, count"
scalar net2.R1.networkLayer.arp 	sentReq:count 	1
attr title  "ARP request sent, count"
scalar net2.R1.networkLayer.arp 	failedARPResolution:count 	0
attr title  "ARP failed resolutions, count"
scalar net2.R1.networkLayer.arp 	completedARPResolution:count 	5
attr title  "ARP completed resolutions, count"
scalar net2.R1.networkLayer.arp 	initiatedARPResolution:count 	1
attr title  "ARP initiated resolutions, count"
scalar net2.R1.lo0.lo 	droppedPkBitError:count 	0
attr interpolationmode  none
attr source  dropPkBitError
attr title  "packets dropped/bit error, count"
scalar net2.R1.lo0.lo 	droppedPkBitError:sum(packetBytes) 	0
attr interpolationmode  none
attr source  dropPkBitError
attr title  "packets dropped/bit error, sum(packetBytes)"
scalar net2.R1.lo0.lo 	rcvdPkFromHL:count 	0
attr interpolationmode  none
attr source  packetReceivedFromUpper
attr title  "packets received from higher layer, count"
scalar net2.R1.lo0.lo 	rcvdPkFromHL:sum(packetBytes) 	0
attr interpolationmode  none
attr source  packetReceivedFromUpper
attr title  "packets received from higher layer, sum(packetBytes)"
scalar net2.R1.lo0.lo 	passedUpPk:count 	0
attr interpolationmode  none
attr source  packetSentToUpper
attr title  "packets passed to higher layer, count"
scalar net2.R1.lo0.lo 	passedUpPk:sum(packetBytes) 	0
attr interpolationmode  none
attr source  packetSentToUpper
attr title  "packets passed to higher layer, sum(packetBytes)"
scalar net2.R1.eth[0].mac 	"simulated time" 	2
scalar net2.R1.eth[0].mac 	full-duplex 	1
scalar net2.R1.eth[0].mac 	"frames/sec sent" 	40
scalar net2.R1.eth[0].mac 	"frames/sec rcvd" 	44
scalar net2.R1.eth[0].mac 	"bits/sec sent" 	99480
scalar net2.R1.eth[0].mac 	"bits/sec rcvd" 	33364
scalar net2.R1.eth[0].mac 	"rx channel idle (%)" 	99.6382
scalar net2.R1.eth[0].mac 	"rx channel utilization (%)" 	0.3618
scalar net2.R1.eth[0].mac 	rxPkFromHL:count 	80
attr interpolationmode  none
attr source  rxPkFromHL
attr title  "packet bytes from higher layer, count"
scalar net2.R1.eth[0].mac 	rxPkFromHL:sum(packetBytes) 	24870
attr interpolationmode  none
attr source  rxPkFromHL
attr title  "packet bytes from higher layer, sum(packetBytes)"
scalar net2.R1.eth[0].mac 	rxPausePkUnits:count 	0
attr interpolationmode  none
attr title  "pause units received, count"
scalar net2.R1.eth[0].mac 	rxPausePkUnits:sum 	0
attr interpolationmode  none
attr title  "pause units received, sum"
scalar net2.R1.eth[0].mac 	txPausePkUnits:count 	0
attr interpolationmode  none
attr title  "pause units sent, count"
scalar net2.R1.eth[0].mac 	txPausePkUnits:sum 	0
attr interpolationmode  none
attr title  "pause units sent, sum"
scalar net2.R1.eth[0].mac 	txPk:count 	80
attr interpolationmode  none
attr source  txPk
attr title  "packets transmitted, count"
scalar net2.R1.eth[0].mac 	txPk:sum(packetBytes) 	24870
attr interpolationmode  none
attr source  txPk
attr title  "packets transmitted, sum(packetBytes)"
scalar net2.R1.eth[0].mac 	droppedPkNotForUs:count 	0
attr interpolationmode  none
attr source  dropPkNotForUs
attr title  "packets dropped/not for us, count"
scalar net2.R1.eth[0].mac 	droppedPkNotForUs:sum(packetBytes) 	0
attr interpolationmode  none
attr source  dropPkNotForUs
attr title  "packets dropped/not for us, sum(packetBytes)"
scalar net2.R1.eth[0].mac 	droppedPkBitError:count 	0
attr interpolationmode  none
attr source  dropPkBitError
attr title  "packets dropped/bit error, count"
scalar net2.R1.eth[0].mac 	droppedPkBitError:sum(packetBytes) 	0
attr interpolationmode  none
attr source  dropPkBitError
attr title  "packets dropped/bit error, sum(packetBytes)"
scalar net2.R1.eth[0].mac 	droppedPkIfaceDown:count 	0
attr interpolationmode  none
attr source  dropPkIfaceDown
attr title  "packets dropped/interface down, count"
scalar net2.R1.eth[0].mac 	droppedPkIfaceDown:sum(packetBytes) 	0
attr interpolationmode  none
attr source  dropPkIfaceDown
attr title  "packets dropped/interface down, sum(packetBytes)"
scalar net2.R1.eth[0].mac 	rxPkOk:count 	88
attr interpolationmode  none
attr source  rxPkOk
attr title  "packets received OK, count"
scalar net2.R1.eth[0].mac 	rxPkOk:sum(packetBytes) 	8341
attr interpolationmode  none
attr source  rxPkOk
attr title  "packets received OK, sum(packetBytes)"
scalar net2.R1.eth[0].mac 	passedUpPk:count 	88
attr interpolationmode  none
attr source  packetSentToUpper
attr title  "packets passed to higher layer, count"
scalar net2.R1.eth[0].mac 	passedUpPk:sum(packetBytes) 	8341
attr interpolationmode  none
attr source  packetSentToUpper
attr title  "packets passed to higher layer, sum(packetBytes)"
scalar net2.R1.eth[0].encap 	pauseSent:count 	0
attr title  "pause sent, count"
scalar net2.R1.eth[0].encap 	pauseSent:sum 	0
attr title  "pause sent, sum"
scalar net2.R1.eth[0].encap 	decapPk:count 	88
attr interpolationmode  none
attr source  decapPk
attr title  "packets decapsulated, count"
scalar net2.R1.eth[0].encap 	decapPk:sum(packetBytes) 	6277
attr interpolationmode  none
attr source  decapPk
attr title  "packets decapsulated, sum(packetBytes)"
scalar net2.R1.eth[0].encap 	encapPk:count 	80
attr interpolationmode  none
attr source  encapPk
attr title  "packets encapsulated, count"
scalar net2.R1.eth[0].encap 	encapPk:sum(packetBytes) 	23214
attr interpolationmode  none
attr source  encapPk
attr title  "packets encapsulated, sum(packetBytes)"
scalar net2.R1.eth[1].mac 	"simulated time" 	2
scalar net2.R1.eth[1].mac 	full-duplex 	1
scalar net2.R1.eth[1].mac 	"frames/sec sent" 	42.5
scalar net2.R1.eth[1].mac 	"frames/sec rcvd" 	39.5
scalar net2.R1.eth[1].mac 	"bits/sec sent" 	32596
scalar net2.R1.eth[1].mac 	"bits/sec rcvd" 	99224
scalar net2.R1.eth[1].mac 	"rx channel idle (%)" 	98.98248
scalar net2.R1.eth[1].mac 	"rx channel utilization (%)" 	1.01752
scalar net2.R1.eth[1].mac 	rxPkFromHL:count 	85
attr interpolationmode  none
attr source  rxPkFromHL
attr title  "packet bytes from higher layer, count"
scalar net2.R1.eth[1].mac 	rxPkFromHL:sum(packetBytes) 	8149
attr interpolationmode  none
attr source  rxPkFromHL
attr title  "packet bytes from higher layer, sum(packetBytes)"
scalar net2.R1.eth[1].mac 	rxPausePkUnits:count 	0
attr interpolationmode  none
attr title  "pause units received, count"
scalar net2.R1.eth[1].mac 	rxPausePkUnits:sum 	0
attr interpolationmode  none
attr title  "pause units received, sum"
scalar net2.R1.eth[1].mac 	txPausePkUnits:count 	0
attr interpolationmode  none
attr title  "pause units sent, count"
scalar net2.R1.eth[1].mac 	txPausePkUnits:sum 	0
attr interpolationmode  none
attr title  "pause units sent, sum"
scalar net2.R1.eth[1].mac 	txPk:count 	85
attr interpolationmode  none
attr source  txPk
attr title  "packets transmitted, count"
scalar net2.R1.eth[1].mac 	txPk:sum(packetBytes) 	8149
attr interpolationmode  none
attr source  txPk
attr title  "packets transmitted, sum(packetBytes)"
scalar net2.R1.eth[1].mac 	droppedPkNotForUs:count 	0
attr interpolationmode  none
attr source  dropPkNotForUs
attr title  "packets dropped/not for us, count"
scalar net2.R1.eth[1].mac 	droppedPkNotForUs:sum(packetBytes) 	0
attr interpolationmode  none
attr source  dropPkNotForUs
attr title  "packets dropped/not for us, sum(packetBytes)"
scalar net2.R1.eth[1].mac 	droppedPkBitError:count 	0
attr interpolationmode  none
attr source  dropPkBitError
attr title  "packets dropped/bit error, count"
scalar net2.R1.eth[1].mac 	droppedPkBitError:sum(packetBytes) 	0
attr interpolationmode  none
attr source  dropPkBitError
attr title  "packets dropped/bit error, sum(packetBytes)"
scalar net2.R1.eth[1].mac 	droppedPkIfaceDown:count 	0
attr interpolationmode  none
attr source  dropPkIfaceDown
attr title  "packets dropped/interface down, count"
scalar net2.R1.eth[1].mac 	droppedPkIfaceDown:sum(packetBytes) 	0
attr interpolationmode  none
attr source  dropPkIfaceDown
attr title  "packets dropped/interface down, sum(packetBytes)"
scalar net2.R1.eth[1].mac 	rxPkOk:count 	79
attr interpolationmode  none
attr source  rxPkOk
attr title  "packets received OK, count"
scalar net2.R1.eth[1].mac 	rxPkOk:sum(packetBytes) 	24806
attr interpolationmode  none
attr source  rxPkOk
attr title  "packets received OK, sum(packetBytes)"
scalar net2.R1.eth[1].mac 	passedUpPk:count 	79
attr interpolationmode  none
attr source  packetSentToUpper
attr title  "packets passed to higher layer, count"
scalar net2.R1.eth[1].mac 	passedUpPk:sum(packetBytes) 	24806
attr interpolationmode  none
attr source  packetSentToUpper
attr title  "packets passed to higher layer, sum(packetBytes)"
scalar net2.R1.eth[1].encap 	pauseSent:count 	0
attr title  "pause sent, count"
scalar net2.R1.eth[1].encap 	pauseSent:sum 	0
attr title  "pause sent, sum"
scalar net2.R1.eth[1].encap 	decapPk:count 	79
attr interpolationmode  none
attr source  decapPk
attr title  "packets decapsulated, count"
scalar net2.R1.eth[1].encap 	decapPk:sum(packetBytes) 	23186
attr interpolationmode  none
attr source  decapPk
attr title  "packets decapsulated, sum(packetBytes)"
scalar net2.R1.eth[1].encap 	encapPk:count 	85
attr interpolationmode  none
attr source  encapPk
attr title  "packets encapsulated, count"
scalar net2.R1.eth[1].encap 	encapPk:sum(packetBytes) 	6193
attr interpolationmode  none
attr source  encapPk
attr title  "packets encapsulated, sum(packetBytes)"
scalar net2.switch.relayUnit 	"number of received BPDUs from STP module" 	0
scalar net2.switch.relayUnit 	"number of received frames from network (including BPDUs)" 	248
scalar net2.switch.relayUnit 	"number of dropped frames (including BPDUs)" 	0
scalar net2.switch.relayUnit 	"number of delivered BPDUs to the STP module" 	0
scalar net2.switch.relayUnit 	"number of dispatched BPDU frames to the network" 	0
scalar net2.switch.relayUnit 	"number of dispatched non-BDPU frames to the network" 	254
scalar net2.switch.eth[0].mac 	"simulated time" 	2
scalar net2.switch.eth[0].mac 	full-duplex 	1
scalar net2.switch.eth[0].mac 	"frames/sec sent" 	12
scalar net2.switch.eth[0].mac 	"frames/sec rcvd" 	12
scalar net2.switch.eth[0].mac 	"bits/sec sent" 	28440
scalar net2.switch.eth[0].mac 	"bits/sec rcvd" 	8744
scalar net2.switch.eth[0].mac 	"rx channel idle (%)" 	99.90488
scalar net2.switch.eth[0].mac 	"rx channel utilization (%)" 	0.09512
scalar net2.switch.eth[0].mac 	"rx channel collision (%)" 	0
scalar net2.switch.eth[0].mac 	collisions 	0
scalar net2.switch.eth[0].mac 	backoffs 	0
scalar net2.switch.eth[0].mac 	backoff:count 	0
attr interpolationmode  none
attr title  "backoff, count"
scalar net2.switch.eth[0].mac 	collision:count 	0
attr interpolationmode  none
attr title  "collision, count"
scalar net2.switch.eth[0].mac 	rxPkFromHL:count 	24
attr interpolationmode  none
attr source  rxPkFromHL
attr title  "packet bytes from higher layer, count"
scalar net2.switch.eth[0].mac 	rxPkFromHL:sum(packetBytes) 	7110
attr interpolationmode  none
attr source  rxPkFromHL
attr title  "packet bytes from higher layer, sum(packetBytes)"
scalar net2.switch.eth[0].mac 	rxPausePkUnits:count 	0
attr interpolationmode  none
attr title  "pause units received, count"
scalar net2.switch.eth[0].mac 	rxPausePkUnits:sum 	0
attr interpolationmode  none
attr title  "pause units received, sum"
scalar net2.switch.eth[0].mac 	txPausePkUnits:count 	0
attr interpolationmode  none
attr title  "pause units sent, count"
scalar net2.switch.eth[0].mac 	txPausePkUnits:sum 	0
attr interpolationmode  none
attr title  "pause units sent, sum"
scalar net2.switch.eth[0].mac 	txPk:count 	24
attr interpolationmode  none
attr source  txPk
attr title  "packets transmitted, count"
scalar net2.switch.eth[0].mac 	txPk:sum(packetBytes) 	7110
attr interpolationmode  none
attr source  txPk
attr title  "packets transmitted, sum(packetBytes)"
scalar net2.switch.eth[0].mac 	droppedPkNotForUs:count 	0
attr interpolationmode  none
attr source  dropPkNotForUs
attr title  "packets dropped/not for us, count"
scalar net2.switch.eth[0].mac 	droppedPkNotForUs:sum(packetBytes) 	0
attr interpolationmode  none
attr source  dropPkNotForUs
attr title  "packets dropped/not for us, sum(packetBytes)"
scalar net2.switch.eth[0].mac 	droppedPkBitError:count 	0
attr interpolationmode  none
attr source  dropPkBitError
attr title  "packets dropped/bit error, count"
scalar net2.switch.eth[0].mac 	droppedPkBitError:sum(packetBytes) 	0
attr interpolationmode  none
attr source  dropPkBitError
attr title  "packets dropped/bit error, sum(packetBytes)"
scalar net2.switch.eth[0].mac 	droppedPkIfaceDown:count 	0
attr interpolationmode  none
attr source  dropPkIfaceDown
attr title  "packets dropped/interface down, count"
scalar net2.switch.eth[0].mac 	droppedPkIfaceDown:sum(packetBytes) 	0
attr interpolationmode  none
attr source  dropPkIfaceDown
attr title  "packets dropped/interface down, sum(packetBytes)"
scalar net2.switch.eth[0].mac 	rxPkOk:count 	24
attr interpolationmode  none
attr source  rxPkOk
attr title  "packets received OK, count"
scalar net2.switch.eth[0].mac 	rxPkOk:sum(packetBytes) 	2186
attr interpolationmode  none
attr source  rxPkOk
attr title  "packets received OK, sum(packetBytes)"
scalar net2.switch.eth[0].mac 	passedUpPk:count 	24
attr interpolationmode  none
attr source  packetSentToUpper
attr title  "packets passed to higher layer, count"
scalar net2.switch.eth[0].mac 	passedUpPk:sum(packetBytes) 	2186
attr interpolationmode  none
attr source  packetSentToUpper
attr title  "packets passed to higher layer, sum(packetBytes)"
scalar net2.switch.eth[1].mac 	"simulated time" 	2
scalar net2.switch.eth[1].mac 	full-duplex 	1
scalar net2.switch.eth[1].mac 	"frames/sec sent" 	10.5
scalar net2.switch.eth[1].mac 	"frames/sec rcvd" 	10.5
scalar net2.switch.eth[1].mac 	"bits/sec sent" 	24056
scalar net2.switch.eth[1].mac 	"bits/sec rcvd" 	8156
scalar net2.switch.eth[1].mac 	"rx channel idle (%)" 	99.91172
scalar net2.switch.eth[1].mac 	"rx channel utilization (%)" 	0.08828
scalar net2.switch.eth[1].mac 	"rx channel collision (%)" 	0
scalar net2.switch.eth[1].mac 	collisions 	0
scalar net2.switch.eth[1].mac 	backoffs 	0
scalar net2.switch.eth[1].mac 	backoff:count 	0
attr interpolationmode  none
attr title  "backoff, count"
scalar net2.switch.eth[1].mac 	collision:count 	0
attr interpolationmode  none
attr title  "collision, count"
scalar net2.switch.eth[1].mac 	rxPkFromHL:count 	21
attr interpolationmode  none
attr source  rxPkFromHL
attr title  "packet bytes from higher layer, count"
scalar net2.switch.eth[1].mac 	rxPkFromHL:sum(packetBytes) 	6014
attr interpolationmode  none
attr source  rxPkFromHL
attr title  "packet bytes from higher layer, sum(packetBytes)"
scalar net2.switch.eth[1].mac 	rxPausePkUnits:count 	0
attr interpolationmode  none
attr title  "pause units received, count"
scalar net2.switch.eth[1].mac 	rxPausePkUnits:sum 	0
attr interpolationmode  none
attr title  "pause units received, sum"
scalar net2.switch.eth[1].mac 	txPausePkUnits:count 	0
attr interpolationmode  none
attr title  "pause units sent, count"
scalar net2.switch.eth[1].mac 	txPausePkUnits:sum 	0
attr interpolationmode  none
attr title  "pause units sent, sum"
scalar net2.switch.eth[1].mac 	txPk:count 	21
attr interpolationmode  none
attr source  txPk
attr title  "packets transmitted, count"
scalar net2.switch.eth[1].mac 	txPk:sum(packetBytes) 	6014
attr interpolationmode  none
attr source  txPk
attr title  "packets transmitted, sum(packetBytes)"
scalar net2.switch.eth[1].mac 	droppedPkNotForUs:count 	0
attr interpolationmode  none
attr source  dropPkNotForUs
attr title  "packets dropped/not for us, count"
scalar net2.switch.eth[1].mac 	droppedPkNotForUs:sum(packetBytes) 	0
attr interpolationmode  none
attr source  dropPkNotForUs
attr title  "packets dropped/not for us, sum(packetBytes)"
scalar net2.switch.eth[1].mac 	droppedPkBitError:count 	0
attr interpolationmode  none
attr source  dropPkBitError
attr title  "packets dropped/bit error, count"
scalar net2.switch.eth[1].mac 	droppedPkBitError:sum(packetBytes) 	0
attr interpolationmode  none
attr source  dropPkBitError
attr title  "packets dropped/bit error, sum(packetBytes)"
scalar net2.switch.eth[1].mac 	droppedPkIfaceDown:count 	0
attr interpolationmode  none
attr source  dropPkIfaceDown
attr title  "packets dropped/interface down, count"
scalar net2.switch.eth[1].mac 	droppedPkIfaceDown:sum(packetBytes) 	0
attr interpolationmode  none
attr source  dropPkIfaceDown
attr title  "packets dropped/interface down, sum(packetBytes)"
scalar net2.switch.eth[1].mac 	rxPkOk:count 	21
attr interpolationmode  none
attr source  rxPkOk
attr title  "packets received OK, count"
scalar net2.switch.eth[1].mac 	rxPkOk:sum(packetBytes) 	2039
attr interpolationmode  none
attr source  rxPkOk
attr title  "packets received OK, sum(packetBytes)"
scalar net2.switch.eth[1].mac 	passedUpPk:count 	21
attr interpolationmode  none
attr source  packetSentToUpper
attr title  "packets passed to higher layer, count"
scalar net2.switch.eth[1].mac 	passedUpPk:sum(packetBytes) 	2039
attr interpolationmode  none
attr source  packetSentToUpper
attr title  "packets passed to higher layer, sum(packetBytes)"
scalar net2.switch.eth[2].mac 	"simulated time" 	2
scalar net2.switch.eth[2].mac 	full-duplex 	1
scalar net2.switch.eth[2].mac 	"frames/sec sent" 	65
scalar net2.switch.eth[2].mac 	"frames/sec rcvd" 	59
scalar net2.switch.eth[2].mac 	"bits/sec sent" 	49496
scalar net2.switch.eth[2].mac 	"bits/sec rcvd" 	150184
scalar net2.switch.eth[2].mac 	"rx channel idle (%)" 	98.4604
scalar net2.switch.eth[2].mac 	"rx channel utilization (%)" 	1.5396
scalar net2.switch.eth[2].mac 	"rx channel collision (%)" 	0
scalar net2.switch.eth[2].mac 	collisions 	0
scalar net2.switch.eth[2].mac 	backoffs 	0
scalar net2.switch.eth[2].mac 	backoff:count 	0
attr interpolationmode  none
attr title  "backoff, count"
scalar net2.switch.eth[2].mac 	collision:count 	0
attr interpolationmode  none
attr title  "collision, count"
scalar net2.switch.eth[2].mac 	rxPkFromHL:count 	130
attr interpolationmode  none
attr source  rxPkFromHL
attr title  "packet bytes from higher layer, count"
scalar net2.switch.eth[2].mac 	rxPkFromHL:sum(packetBytes) 	12374
attr interpolationmode  none
attr source  rxPkFromHL
attr title  "packet bytes from higher layer, sum(packetBytes)"
scalar net2.switch.eth[2].mac 	rxPausePkUnits:count 	0
attr interpolationmode  none
attr title  "pause units received, count"
scalar net2.switch.eth[2].mac 	rxPausePkUnits:sum 	0
attr interpolationmode  none
attr title  "pause units received, sum"
scalar net2.switch.eth[2].mac 	txPausePkUnits:count 	0
attr interpolationmode  none
attr title  "pause units sent, count"
scalar net2.switch.eth[2].mac 	txPausePkUnits:sum 	0
attr interpolationmode  none
attr title  "pause units sent, sum"
scalar net2.switch.eth[2].mac 	txPk:count 	130
attr interpolationmode  none
attr source  txPk
attr title  "packets transmitted, count"
scalar net2.switch.eth[2].mac 	txPk:sum(packetBytes) 	12374
attr interpolationmode  none
attr source  txPk
attr title  "packets transmitted, sum(packetBytes)"
scalar net2.switch.eth[2].mac 	droppedPkNotForUs:count 	0
attr interpolationmode  none
attr source  dropPkNotForUs
attr title  "packets dropped/not for us, count"
scalar net2.switch.eth[2].mac 	droppedPkNotForUs:sum(packetBytes) 	0
attr interpolationmode  none
attr source  dropPkNotForUs
attr title  "packets dropped/not for us, sum(packetBytes)"
scalar net2.switch.eth[2].mac 	droppedPkBitError:count 	0
attr interpolationmode  none
attr source  dropPkBitError
attr title  "packets dropped/bit error, count"
scalar net2.switch.eth[2].mac 	droppedPkBitError:sum(packetBytes) 	0
attr interpolationmode  none
attr source  dropPkBitError
attr title  "packets dropped/bit error, sum(packetBytes)"
scalar net2.switch.eth[2].mac 	droppedPkIfaceDown:count 	0
attr interpolationmode  none
attr source  dropPkIfaceDown
attr title  "packets dropped/interface down, count"
scalar net2.switch.eth[2].mac 	droppedPkIfaceDown:sum(packetBytes) 	0
attr interpolationmode  none
attr source  dropPkIfaceDown
attr title  "packets dropped/interface down, sum(packetBytes)"
scalar net2.switch.eth[2].mac 	rxPkOk:count 	118
attr interpolationmode  none
attr source  rxPkOk
attr title  "packets received OK, count"
scalar net2.switch.eth[2].mac 	rxPkOk:sum(packetBytes) 	37546
attr interpolationmode  none
attr source  rxPkOk
attr title  "packets received OK, sum(packetBytes)"
scalar net2.switch.eth[2].mac 	passedUpPk:count 	118
attr interpolationmode  none
attr source  packetSentToUpper
attr title  "packets passed to higher layer, count"
scalar net2.switch.eth[2].mac 	passedUpPk:sum(packetBytes) 	37546
attr interpolationmode  none
attr source  packetSentToUpper
attr title  "packets passed to higher layer, sum(packetBytes)"
scalar net2.switch.eth[3].mac 	"simulated time" 	2
scalar net2.switch.eth[3].mac 	full-duplex 	1
scalar net2.switch.eth[3].mac 	"frames/sec sent" 	39.5
scalar net2.switch.eth[3].mac 	"frames/sec rcvd" 	42.5
scalar net2.switch.eth[3].mac 	"bits/sec sent" 	99224
scalar net2.switch.eth[3].mac 	"bits/sec rcvd" 	32596
scalar net2.switch.eth[3].mac 	"rx channel idle (%)" 	99.64684
scalar net2.switch.eth[3].mac 	"rx channel utilization (%)" 	0.35316
scalar net2.switch.eth[3].mac 	"rx channel collision (%)" 	0
scalar net2.switch.eth[3].mac 	collisions 	0
scalar net2.switch.eth[3].mac 	backoffs 	0
scalar net2.switch.eth[3].mac 	backoff:count 	0
attr interpolationmode  none
attr title  "backoff, count"
scalar net2.switch.eth[3].mac 	collision:count 	0
attr interpolationmode  none
attr title  "collision, count"
scalar net2.switch.eth[3].mac 	rxPkFromHL:count 	79
attr interpolationmode  none
attr source  rxPkFromHL
attr title  "packet bytes from higher layer, count"
scalar net2.switch.eth[3].mac 	rxPkFromHL:sum(packetBytes) 	24806
attr interpolationmode  none
attr source  rxPkFromHL
attr title  "packet bytes from higher layer, sum(packetBytes)"
scalar net2.switch.eth[3].mac 	rxPausePkUnits:count 	0
attr interpolationmode  none
attr title  "pause units received, count"
scalar net2.switch.eth[3].mac 	rxPausePkUnits:sum 	0
attr interpolationmode  none
attr title  "pause units received, sum"
scalar net2.switch.eth[3].mac 	txPausePkUnits:count 	0
attr interpolationmode  none
attr title  "pause units sent, count"
scalar net2.switch.eth[3].mac 	txPausePkUnits:sum 	0
attr interpolationmode  none
attr title  "pause units sent, sum"
scalar net2.switch.eth[3].mac 	txPk:count 	79
attr interpolationmode  none
attr source  txPk
attr title  "packets transmitted, count"
scalar net2.switch.eth[3].mac 	txPk:sum(packetBytes) 	24806
attr interpolationmode  none
attr source  txPk
attr title  "packets transmitted, sum(packetBytes)"
scalar net2.switch.eth[3].mac 	droppedPkNotForUs:count 	0
attr interpolationmode  none
attr source  dropPkNotForUs
attr title  "packets dropped/not for us, count"
scalar net2.switch.eth[3].mac 	droppedPkNotForUs:sum(packetBytes) 	0
attr interpolationmode  none
attr source  dropPkNotForUs
attr title  "packets dropped/not for us, sum(packetBytes)"
scalar net2.switch.eth[3].mac 	droppedPkBitError:count 	0
attr interpolationmode  none
attr source  dropPkBitError
attr title  "packets dropped/bit error, count"
scalar net2.switch.eth[3].mac 	droppedPkBitError:sum(packetBytes) 	0
attr interpolationmode  none
attr source  dropPkBitError
attr title  "packets dropped/bit error, sum(packetBytes)"
scalar net2.switch.eth[3].mac 	droppedPkIfaceDown:count 	0
attr interpolationmode  none
attr source  dropPkIfaceDown
attr title  "packets dropped/interface down, count"
scalar net2.switch.eth[3].mac 	droppedPkIfaceDown:sum(packetBytes) 	0
attr interpolationmode  none
attr source  dropPkIfaceDown
attr title  "packets dropped/interface down, sum(packetBytes)"
scalar net2.switch.eth[3].mac 	rxPkOk:count 	85
attr interpolationmode  none
attr source  rxPkOk
attr title  "packets received OK, count"
scalar net2.switch.eth[3].mac 	rxPkOk:sum(packetBytes) 	8149
attr interpolationmode  none
attr source  rxPkOk
attr title  "packets received OK, sum(packetBytes)"
scalar net2.switch.eth[3].mac 	passedUpPk:count 	85
attr interpolationmode  none
attr source  packetSentToUpper
attr title  "packets passed to higher layer, count"
scalar net2.switch.eth[3].mac 	passedUpPk:sum(packetBytes) 	8149
attr interpolationmode  none
attr source  packetSentToUpper
attr title  "packets passed to higher layer, sum(packetBytes)"
scalar net2.server.networkLayer.arp 	sentReply:count 	3
attr title  "ARP replies sent, count"
scalar net2.server.networkLayer.arp 	sentReq:count 	0
attr title  "ARP request sent, count"
scalar net2.server.networkLayer.arp 	failedARPResolution:count 	0
attr title  "ARP failed resolutions, count"
scalar net2.server.networkLayer.arp 	completedARPResolution:count 	3
attr title  "ARP completed resolutions, count"
scalar net2.server.networkLayer.arp 	initiatedARPResolution:count 	0
attr title  "ARP initiated resolutions, count"
scalar net2.server.lo0.lo 	droppedPkBitError:count 	0
attr interpolationmode  none
attr source  dropPkBitError
attr title  "packets dropped/bit error, count"
scalar net2.server.lo0.lo 	droppedPkBitError:sum(packetBytes) 	0
attr interpolationmode  none
attr source  dropPkBitError
attr title  "packets dropped/bit error, sum(packetBytes)"
scalar net2.server.lo0.lo 	rcvdPkFromHL:count 	0
attr interpolationmode  none
attr source  packetReceivedFromUpper
attr title  "packets received from higher layer, count"
scalar net2.server.lo0.lo 	rcvdPkFromHL:sum(packetBytes) 	0
attr interpolationmode  none
attr source  packetReceivedFromUpper
attr title  "packets received from higher layer, sum(packetBytes)"
scalar net2.server.lo0.lo 	passedUpPk:count 	0
attr interpolationmode  none
attr source  packetSentToUpper
attr title  "packets passed to higher layer, count"
scalar net2.server.lo0.lo 	passedUpPk:sum(packetBytes) 	0
attr interpolationmode  none
attr source  packetSentToUpper
attr title  "packets passed to higher layer, sum(packetBytes)"
scalar net2.server.eth[0].mac 	"simulated time" 	2
scalar net2.server.eth[0].mac 	full-duplex 	1
scalar net2.server.eth[0].mac 	"frames/sec sent" 	59
scalar net2.server.eth[0].mac 	"frames/sec rcvd" 	65
scalar net2.server.eth[0].mac 	"bits/sec sent" 	150184
scalar net2.server.eth[0].mac 	"bits/sec rcvd" 	49496
scalar net2.server.eth[0].mac 	"rx channel idle (%)" 	99.46344
scalar net2.server.eth[0].mac 	"rx channel utilization (%)" 	0.53656
scalar net2.server.eth[0].mac 	rxPkFromHL:count 	118
attr interpolationmode  none
attr source  rxPkFromHL
attr title  "packet bytes from higher layer, count"
scalar net2.server.eth[0].mac 	rxPkFromHL:sum(packetBytes) 	37546
attr interpolationmode  none
attr source  rxPkFromHL
attr title  "packet bytes from higher layer, sum(packetBytes)"
scalar net2.server.eth[0].mac 	rxPausePkUnits:count 	0
attr interpolationmode  none
attr title  "pause units received, count"
scalar net2.server.eth[0].mac 	rxPausePkUnits:sum 	0
attr interpolationmode  none
attr title  "pause units received, sum"
scalar net2.server.eth[0].mac 	txPausePkUnits:count 	0
attr interpolationmode  none
attr title  "pause units sent, count"
scalar net2.server.eth[0].mac 	txPausePkUnits:sum 	0
attr interpolationmode  none
attr title  "pause units sent, sum"
scalar net2.server.eth[0].mac 	txPk:count 	118
attr interpolationmode  none
attr source  txPk
attr title  "packets transmitted, count"
scalar net2.server.eth[0].mac 	txPk:sum(packetBytes) 	37546
attr interpolationmode  none
attr source  txPk
attr title  "packets transmitted, sum(packetBytes)"
scalar net2.server.eth[0].mac 	droppedPkNotForUs:count 	0
attr interpolationmode  none
attr source  dropPkNotForUs
attr title  "packets dropped/not for us, count"
scalar net2.server.eth[0].mac 	droppedPkNotForUs:sum(packetBytes) 	0
attr interpolationmode  none
attr source  dropPkNotForUs
attr title  "packets dropped/not for us, sum(packetBytes)"
scalar net2.server.eth[0].mac 	droppedPkBitError:count 	0
attr interpolationmode  none
attr source  dropPkBitError
attr title  "packets dropped/bit error, count"
scalar net2.server.eth[0].mac 	droppedPkBitError:sum(packetBytes) 	0
attr interpolationmode  none
attr source  dropPkBitError
attr title  "packets dropped/bit error, sum(packetBytes)"
scalar net2.server.eth[0].mac 	droppedPkIfaceDown:count 	0
attr interpolationmode  none
attr source  dropPkIfaceDown
attr title  "packets dropped/interface down, count"
scalar net2.server.eth[0].mac 	droppedPkIfaceDown:sum(packetBytes) 	0
attr interpolationmode  none
attr source  dropPkIfaceDown
attr title  "packets dropped/interface down, sum(packetBytes)"
scalar net2.server.eth[0].mac 	rxPkOk:count 	130
attr interpolationmode  none
attr source  rxPkOk
attr title  "packets received OK, count"
scalar net2.server.eth[0].mac 	rxPkOk:sum(packetBytes) 	12374
attr interpolationmode  none
attr source  rxPkOk
attr title  "packets received OK, sum(packetBytes)"
scalar net2.server.eth[0].mac 	passedUpPk:count 	130
attr interpolationmode  none
attr source  packetSentToUpper
attr title  "packets passed to higher layer, count"
scalar net2.server.eth[0].mac 	passedUpPk:sum(packetBytes) 	12374
attr interpolationmode  none
attr source  packetSentToUpper
attr title  "packets passed to higher layer, sum(packetBytes)"
scalar net2.server.eth[0].encap 	pauseSent:count 	0
attr title  "pause sent, count"
scalar net2.server.eth[0].encap 	pauseSent:sum 	0
attr title  "pause sent, sum"
scalar net2.server.eth[0].encap 	decapPk:count 	130
attr interpolationmode  none
attr source  decapPk
attr title  "packets decapsulated, count"
scalar net2.server.eth[0].encap 	decapPk:sum(packetBytes) 	9362
attr interpolationmode  none
attr source  decapPk
attr title  "packets decapsulated, sum(packetBytes)"
scalar net2.server.eth[0].encap 	encapPk:count 	118
attr interpolationmode  none
attr source  encapPk
attr title  "packets encapsulated, count"
scalar net2.server.eth[0].encap 	encapPk:sum(packetBytes) 	35152
attr interpolationmode  none
attr source  encapPk
attr title  "packets encapsulated, sum(packetBytes)"
scalar net2.server.tcpApp[0] 	sentPk:count 	12
attr interpolationmode  none
attr source  sentPk
attr title  "packets sent, count"
scalar net2.server.tcpApp[0] 	sentPk:sum(packetBytes) 	30372
attr interpolationmode  none
attr source  sentPk
attr title  "packets sent, sum(packetBytes)"
scalar net2.server.tcpApp[0] 	rcvdPk:count 	12
attr interpolationmode  none
attr source  rcvdPk
attr title  "packets received, count"
scalar net2.server.tcpApp[0] 	rcvdPk:sum(packetBytes) 	4102
attr interpolationmode  none
attr source  rcvdPk
attr title  "packets received, sum(packetBytes)"
statistic net2.server.tcpApp[0] 	endToEndDelay:histogram
field count 12
field mean 0.0012941666666667
field stddev 0.00038524751744427
field sum 0.01553
field sqrsum 2.173098048e-005
field min 0.000701
field max 0.001776
attr interpolationmode  none
attr source  messageAge(rcvdPk)
attr title  "end-to-end delay, histogram"
attr unit  s
bin	-INF	0
bin	0.0001635	0
bin	0.00023516666666667	0
bin	0.00030683333333333	0
bin	0.0003785	0
bin	0.00045016666666667	0
bin	0.00052183333333333	0
bin	0.0005935	0
bin	0.00066516666666667	2
bin	0.00073683333333333	1
bin	0.0008085	0
bin	0.00088016666666667	0
bin	0.00095183333333333	0
bin	0.0010235	1
bin	0.0010951666666667	0
bin	0.0011668333333333	0
bin	0.0012385	0
bin	0.0013101666666667	0
bin	0.0013818333333333	3
bin	0.0014535	3
bin	0.0015251666666667	0
bin	0.0015968333333333	0
bin	0.0016685	0
bin	0.0017401666666667	2
bin	0.0018118333333333	0
bin	0.0018835	0
bin	0.0019551666666667	0
bin	0.0020268333333333	0
bin	0.0020985	0
bin	0.0021701666666667	0
bin	0.0022418333333333	0
bin	0.0023135	0
scalar net2.server.tcpApp[1] 	numActiveSessions:max 	nan
attr interpolationmode  sample-hold
attr source  sum(connect)
attr title  "number of active sessions, max"
scalar net2.server.tcpApp[1] 	numActiveSessions:timeavg 	nan
attr interpolationmode  sample-hold
attr source  sum(connect)
attr title  "number of active sessions, timeavg"
scalar net2.server.tcpApp[1] 	numSessions:last 	nan
attr source  sum(connect+1)/2
attr title  "total number of sessions, last"
scalar net2.server.tcpApp[1] 	sentPk:count 	0
attr interpolationmode  none
attr source  sentPk
attr title  "packets sent, count"
scalar net2.server.tcpApp[1] 	sentPk:sum(packetBytes) 	0
attr interpolationmode  none
attr source  sentPk
attr title  "packets sent, sum(packetBytes)"
scalar net2.server.tcpApp[1] 	rcvdPk:count 	0
attr interpolationmode  none
attr source  rcvdPk
attr title  "packets received, count"
scalar net2.server.tcpApp[1] 	rcvdPk:sum(packetBytes) 	0
attr interpolationmode  none
attr source  rcvdPk
attr title  "packets received, sum(packetBytes)"
statistic net2.server.tcpApp[1] 	endToEndDelay:histogram
field count 0
field mean nan
field stddev nan
field sum 0
field sqrsum 0
field min nan
field max nan
attr interpolationmode  none
attr source  messageAge(rcvdPk)
attr title  "end-to-end delay, histogram"
attr unit  s
bin	-INF	0
bin	-0.5	0
bin	-0.46666666666667	0
bin	-0.43333333333333	0
bin	-0.4	0
bin	-0.36666666666667	0
bin	-0.33333333333333	0
bin	-0.3	0
bin	-0.26666666666667	0
bin	-0.23333333333333	0
bin	-0.2	0
bin	-0.16666666666667	0
bin	-0.13333333333333	0
bin	-0.1	0
bin	-0.066666666666667	0
bin	-0.033333333333333	0
bin	0	0
bin	0.033333333333333	0
bin	0.066666666666667	0
bin	0.1	0
bin	0.13333333333333	0
bin	0.16666666666667	0
bin	0.2	0
bin	0.23333333333333	0
bin	0.26666666666667	0
bin	0.3	0
bin	0.33333333333333	0
bin	0.36666666666667	0
bin	0.4	0
bin	0.43333333333333	0
bin	0.46666666666667	0
bin	0.5	0
scalar net2.server.pingApp[0] 	numOutOfOrderArrivals:last 	nan
attr interpolationmode  none
attr title  "ping out-of-order arrivals, last"
scalar net2.server.pingApp[0] 	pingRxSeq:count 	0
attr interpolationmode  none
attr title  "ping rx seq, count"
scalar net2.server.pingApp[0] 	pingTxSeq:count 	0
attr interpolationmode  none
attr title  "ping tx seq, count"
scalar net2.server.pingApp[0] 	numLost:last 	nan
attr interpolationmode  none
attr title  "pings lost, last"
statistic net2.server.pingApp[0] 	rtt:histogram
field count 0
field mean nan
field stddev nan
field sum 0
field sqrsum 0
field min nan
field max nan
attr interpolationmode  none
attr title  "ping round-trip time, histogram"
attr unit  s
bin	-INF	0
bin	-0.5	0
bin	-0.46666666666667	0
bin	-0.43333333333333	0
bin	-0.4	0
bin	-0.36666666666667	0
bin	-0.33333333333333	0
bin	-0.3	0
bin	-0.26666666666667	0
bin	-0.23333333333333	0
bin	-0.2	0
bin	-0.16666666666667	0
bin	-0.13333333333333	0
bin	-0.1	0
bin	-0.066666666666667	0
bin	-0.033333333333333	0
bin	0	0
bin	0.033333333333333	0
bin	0.066666666666667	0
bin	0.1	0
bin	0.13333333333333	0
bin	0.16666666666667	0
bin	0.2	0
bin	0.23333333333333	0
bin	0.26666666666667	0
bin	0.3	0
bin	0.33333333333333	0
bin	0.36666666666667	0
bin	0.4	0
bin	0.43333333333333	0
bin	0.46666666666667	0
bin	0.5	0
scalar net2.comp[0].networkLayer.arp 	sentReply:count 	0
attr title  "ARP replies sent, count"
scalar net2.comp[0].networkLayer.arp 	sentReq:count 	1
attr title  "ARP request sent, count"
scalar net2.comp[0].networkLayer.arp 	failedARPResolution:count 	0
attr title  "ARP failed resolutions, count"
scalar net2.comp[0].networkLayer.arp 	completedARPResolution:count 	1
attr title  "ARP completed resolutions, count"
scalar net2.comp[0].networkLayer.arp 	initiatedARPResolution:count 	1
attr title  "ARP initiated resolutions, count"
scalar net2.comp[0].lo0.lo 	droppedPkBitError:count 	0
attr interpolationmode  none
attr source  dropPkBitError
attr title  "packets dropped/bit error, count"
scalar net2.comp[0].lo0.lo 	droppedPkBitError:sum(packetBytes) 	0
attr interpolationmode  none
attr source  dropPkBitError
attr title  "packets dropped/bit error, sum(packetBytes)"
scalar net2.comp[0].lo0.lo 	rcvdPkFromHL:count 	0
attr interpolationmode  none
attr source  packetReceivedFromUpper
attr title  "packets received from higher layer, count"
scalar net2.comp[0].lo0.lo 	rcvdPkFromHL:sum(packetBytes) 	0
attr interpolationmode  none
attr source  packetReceivedFromUpper
attr title  "packets received from higher layer, sum(packetBytes)"
scalar net2.comp[0].lo0.lo 	passedUpPk:count 	0
attr interpolationmode  none
attr source  packetSentToUpper
attr title  "packets passed to higher layer, count"
scalar net2.comp[0].lo0.lo 	passedUpPk:sum(packetBytes) 	0
attr interpolationmode  none
attr source  packetSentToUpper
attr title  "packets passed to higher layer, sum(packetBytes)"
scalar net2.comp[0].eth[0].mac 	"simulated time" 	2
scalar net2.comp[0].eth[0].mac 	full-duplex 	1
scalar net2.comp[0].eth[0].mac 	"frames/sec sent" 	12
scalar net2.comp[0].eth[0].mac 	"frames/sec rcvd" 	12.5
scalar net2.comp[0].eth[0].mac 	"bits/sec sent" 	8756
scalar net2.comp[0].eth[0].mac 	"bits/sec rcvd" 	30768
scalar net2.comp[0].eth[0].mac 	"rx channel idle (%)" 	99.68432
scalar net2.comp[0].eth[0].mac 	"rx channel utilization (%)" 	0.31568
scalar net2.comp[0].eth[0].mac 	rxPkFromHL:count 	24
attr interpolationmode  none
attr source  rxPkFromHL
attr title  "packet bytes from higher layer, count"
scalar net2.comp[0].eth[0].mac 	rxPkFromHL:sum(packetBytes) 	2189
attr interpolationmode  none
attr source  rxPkFromHL
attr title  "packet bytes from higher layer, sum(packetBytes)"
scalar net2.comp[0].eth[0].mac 	rxPausePkUnits:count 	0
attr interpolationmode  none
attr title  "pause units received, count"
scalar net2.comp[0].eth[0].mac 	rxPausePkUnits:sum 	0
attr interpolationmode  none
attr title  "pause units received, sum"
scalar net2.comp[0].eth[0].mac 	txPausePkUnits:count 	0
attr interpolationmode  none
attr title  "pause units sent, count"
scalar net2.comp[0].eth[0].mac 	txPausePkUnits:sum 	0
attr interpolationmode  none
attr title  "pause units sent, sum"
scalar net2.comp[0].eth[0].mac 	txPk:count 	24
attr interpolationmode  none
attr source  txPk
attr title  "packets transmitted, count"
scalar net2.comp[0].eth[0].mac 	txPk:sum(packetBytes) 	2189
attr interpolationmode  none
attr source  txPk
attr title  "packets transmitted, sum(packetBytes)"
scalar net2.comp[0].eth[0].mac 	droppedPkNotForUs:count 	0
attr interpolationmode  none
attr source  dropPkNotForUs
attr title  "packets dropped/not for us, count"
scalar net2.comp[0].eth[0].mac 	droppedPkNotForUs:sum(packetBytes) 	0
attr interpolationmode  none
attr source  dropPkNotForUs
attr title  "packets dropped/not for us, sum(packetBytes)"
scalar net2.comp[0].eth[0].mac 	droppedPkBitError:count 	0
attr interpolationmode  none
attr source  dropPkBitError
attr title  "packets dropped/bit error, count"
scalar net2.comp[0].eth[0].mac 	droppedPkBitError:sum(packetBytes) 	0
attr interpolationmode  none
attr source  dropPkBitError
attr title  "packets dropped/bit error, sum(packetBytes)"
scalar net2.comp[0].eth[0].mac 	droppedPkIfaceDown:count 	0
attr interpolationmode  none
attr source  dropPkIfaceDown
attr title  "packets dropped/interface down, count"
scalar net2.comp[0].eth[0].mac 	droppedPkIfaceDown:sum(packetBytes) 	0
attr interpolationmode  none
attr source  dropPkIfaceDown
attr title  "packets dropped/interface down, sum(packetBytes)"
scalar net2.comp[0].eth[0].mac 	rxPkOk:count 	25
attr interpolationmode  none
attr source  rxPkOk
attr title  "packets received OK, count"
scalar net2.comp[0].eth[0].mac 	rxPkOk:sum(packetBytes) 	7692
attr interpolationmode  none
attr source  rxPkOk
attr title  "packets received OK, sum(packetBytes)"
scalar net2.comp[0].eth[0].mac 	passedUpPk:count 	25
attr interpolationmode  none
attr source  packetSentToUpper
attr title  "packets passed to higher layer, count"
scalar net2.comp[0].eth[0].mac 	passedUpPk:sum(packetBytes) 	7692
attr interpolationmode  none
attr source  packetSentToUpper
attr title  "packets passed to higher layer, sum(packetBytes)"
scalar net2.comp[0].eth[0].encap 	pauseSent:count 	0
attr title  "pause sent, count"
scalar net2.comp[0].eth[0].encap 	pauseSent:sum 	0
attr title  "pause sent, sum"
scalar net2.comp[0].eth[0].encap 	decapPk:count 	25
attr interpolationmode  none
attr source  decapPk
attr title  "packets decapsulated, count"
scalar net2.comp[0].eth[0].encap 	decapPk:sum(packetBytes) 	7134
attr interpolationmode  none
attr source  decapPk
attr title  "packets decapsulated, sum(packetBytes)"
scalar net2.comp[0].eth[0].encap 	encapPk:count 	24
attr interpolationmode  none
attr source  encapPk
attr title  "packets encapsulated, count"
scalar net2.comp[0].eth[0].encap 	encapPk:sum(packetBytes) 	1625
attr interpolationmode  none
attr source  encapPk
attr title  "packets encapsulated, sum(packetBytes)"
scalar net2.comp[0].eth[1].mac 	"simulated time" 	2
scalar net2.comp[0].eth[1].mac 	full-duplex 	1
scalar net2.comp[0].eth[1].mac 	"frames/sec sent" 	0
scalar net2.comp[0].eth[1].mac 	"frames/sec rcvd" 	2
scalar net2.comp[0].eth[1].mac 	"bits/sec sent" 	0
scalar net2.comp[0].eth[1].mac 	"bits/sec rcvd" 	1024
scalar net2.comp[0].eth[1].mac 	"rx channel idle (%)" 	99.98848
scalar net2.comp[0].eth[1].mac 	"rx channel utilization (%)" 	0.01152
scalar net2.comp[0].eth[1].mac 	rxPkFromHL:count 	0
attr interpolationmode  none
attr source  rxPkFromHL
attr title  "packet bytes from higher layer, count"
scalar net2.comp[0].eth[1].mac 	rxPkFromHL:sum(packetBytes) 	0
attr interpolationmode  none
attr source  rxPkFromHL
attr title  "packet bytes from higher layer, sum(packetBytes)"
scalar net2.comp[0].eth[1].mac 	rxPausePkUnits:count 	0
attr interpolationmode  none
attr title  "pause units received, count"
scalar net2.comp[0].eth[1].mac 	rxPausePkUnits:sum 	0
attr interpolationmode  none
attr title  "pause units received, sum"
scalar net2.comp[0].eth[1].mac 	txPausePkUnits:count 	0
attr interpolationmode  none
attr title  "pause units sent, count"
scalar net2.comp[0].eth[1].mac 	txPausePkUnits:sum 	0
attr interpolationmode  none
attr title  "pause units sent, sum"
scalar net2.comp[0].eth[1].mac 	txPk:count 	0
attr interpolationmode  none
attr source  txPk
attr title  "packets transmitted, count"
scalar net2.comp[0].eth[1].mac 	txPk:sum(packetBytes) 	0
attr interpolationmode  none
attr source  txPk
attr title  "packets transmitted, sum(packetBytes)"
scalar net2.comp[0].eth[1].mac 	droppedPkNotForUs:count 	0
attr interpolationmode  none
attr source  dropPkNotForUs
attr title  "packets dropped/not for us, count"
scalar net2.comp[0].eth[1].mac 	droppedPkNotForUs:sum(packetBytes) 	0
attr interpolationmode  none
attr source  dropPkNotForUs
attr title  "packets dropped/not for us, sum(packetBytes)"
scalar net2.comp[0].eth[1].mac 	droppedPkBitError:count 	0
attr interpolationmode  none
attr source  dropPkBitError
attr title  "packets dropped/bit error, count"
scalar net2.comp[0].eth[1].mac 	droppedPkBitError:sum(packetBytes) 	0
attr interpolationmode  none
attr source  dropPkBitError
attr title  "packets dropped/bit error, sum(packetBytes)"
scalar net2.comp[0].eth[1].mac 	droppedPkIfaceDown:count 	0
attr interpolationmode  none
attr source  dropPkIfaceDown
attr title  "packets dropped/interface down, count"
scalar net2.comp[0].eth[1].mac 	droppedPkIfaceDown:sum(packetBytes) 	0
attr interpolationmode  none
attr source  dropPkIfaceDown
attr title  "packets dropped/interface down, sum(packetBytes)"
scalar net2.comp[0].eth[1].mac 	rxPkOk:count 	4
attr interpolationmode  none
attr source  rxPkOk
attr title  "packets received OK, count"
scalar net2.comp[0].eth[1].mac 	rxPkOk:sum(packetBytes) 	256
attr interpolationmode  none
attr source  rxPkOk
attr title  "packets received OK, sum(packetBytes)"
scalar net2.comp[0].eth[1].mac 	passedUpPk:count 	4
attr interpolationmode  none
attr source  packetSentToUpper
attr title  "packets passed to higher layer, count"
scalar net2.comp[0].eth[1].mac 	passedUpPk:sum(packetBytes) 	256
attr interpolationmode  none
attr source  packetSentToUpper
attr title  "packets passed to higher layer, sum(packetBytes)"
scalar net2.comp[0].eth[1].encap 	pauseSent:count 	0
attr title  "pause sent, count"
scalar net2.comp[0].eth[1].encap 	pauseSent:sum 	0
attr title  "pause sent, sum"
scalar net2.comp[0].eth[1].encap 	decapPk:count 	4
attr interpolationmode  none
attr source  decapPk
attr title  "packets decapsulated, count"
scalar net2.comp[0].eth[1].encap 	decapPk:sum(packetBytes) 	112
attr interpolationmode  none
attr source  decapPk
attr title  "packets decapsulated, sum(packetBytes)"
scalar net2.comp[0].eth[1].encap 	encapPk:count 	0
attr interpolationmode  none
attr source  encapPk
attr title  "packets encapsulated, count"
scalar net2.comp[0].eth[1].encap 	encapPk:sum(packetBytes) 	0
attr interpolationmode  none
attr source  encapPk
attr title  "packets encapsulated, sum(packetBytes)"
scalar net2.comp[0].tcpApp[0] 	numActiveSessions:max 	1
attr interpolationmode  sample-hold
attr source  sum(connect)
attr title  "number of active sessions, max"
scalar net2.comp[0].tcpApp[0] 	numActiveSessions:timeavg 	0.0269654
attr interpolationmode  sample-hold
attr source  sum(connect)
attr title  "number of active sessions, timeavg"
scalar net2.comp[0].tcpApp[0] 	numSessions:last 	2
attr source  sum(connect+1)/2
attr title  "total number of sessions, last"
scalar net2.comp[0].tcpApp[0] 	sentPk:count 	2
attr interpolationmode  none
attr source  sentPk
attr title  "packets sent, count"
scalar net2.comp[0].tcpApp[0] 	sentPk:sum(packetBytes) 	661
attr interpolationmode  none
attr source  sentPk
attr title  "packets sent, sum(packetBytes)"
scalar net2.comp[0].tcpApp[0] 	rcvdPk:count 	2
attr interpolationmode  none
attr source  rcvdPk
attr title  "packets received, count"
scalar net2.comp[0].tcpApp[0] 	rcvdPk:sum(packetBytes) 	6166
attr interpolationmode  none
attr source  rcvdPk
attr title  "packets received, sum(packetBytes)"
statistic net2.comp[0].tcpApp[0] 	endToEndDelay:histogram
field count 2
field mean 0.0125656
field stddev 0.0029064917133892
field sum 0.0251312
field sqrsum 0.0003242363008
field min 0.0105104
field max 0.0146208
attr interpolationmode  none
attr source  messageAge(rcvdPk)
attr title  "end-to-end delay, histogram"
attr unit  s
bin	-INF	0
bin	0.0084552	0
bin	0.0087292266666667	0
bin	0.0090032533333333	0
bin	0.00927728	0
bin	0.0095513066666667	0
bin	0.0098253333333333	0
bin	0.01009936	0
bin	0.010373386666667	1
bin	0.010647413333333	0
bin	0.01092144	0
bin	0.011195466666667	0
bin	0.011469493333333	0
bin	0.01174352	0
bin	0.012017546666667	0
bin	0.012291573333333	0
bin	0.0125656	0
bin	0.012839626666667	0
bin	0.013113653333333	0
bin	0.01338768	0
bin	0.013661706666667	0
bin	0.013935733333333	0
bin	0.01420976	0
bin	0.014483786666667	1
bin	0.014757813333333	0
bin	0.01503184	0
bin	0.015305866666667	0
bin	0.015579893333333	0
bin	0.01585392	0
bin	0.016127946666667	0
bin	0.016401973333333	0
bin	0.016676	0
scalar net2.comp[0].tcpApp[1] 	numActiveSessions:max 	nan
attr interpolationmode  sample-hold
attr source  sum(connect)
attr title  "number of active sessions, max"
scalar net2.comp[0].tcpApp[1] 	numActiveSessions:timeavg 	nan
attr interpolationmode  sample-hold
attr source  sum(connect)
attr title  "number of active sessions, timeavg"
scalar net2.comp[0].tcpApp[1] 	numSessions:last 	nan
attr source  sum(connect+1)/2
attr title  "total number of sessions, last"
scalar net2.comp[0].tcpApp[1] 	sentPk:count 	0
attr interpolationmode  none
attr source  sentPk
attr title  "packets sent, count"
scalar net2.comp[0].tcpApp[1] 	sentPk:sum(packetBytes) 	0
attr interpolationmode  none
attr source  sentPk
attr title  "packets sent, sum(packetBytes)"
scalar net2.comp[0].tcpApp[1] 	rcvdPk:count 	0
attr interpolationmode  none
attr source  rcvdPk
attr title  "packets received, count"
scalar net2.comp[0].tcpApp[1] 	rcvdPk:sum(packetBytes) 	0
attr interpolationmode  none
attr source  rcvdPk
attr title  "packets received, sum(packetBytes)"
statistic net2.comp[0].tcpApp[1] 	endToEndDelay:histogram
field count 0
field mean nan
field stddev nan
field sum 0
field sqrsum 0
field min nan
field max nan
attr interpolationmode  none
attr source  messageAge(rcvdPk)
attr title  "end-to-end delay, histogram"
attr unit  s
bin	-INF	0
bin	-0.5	0
bin	-0.46666666666667	0
bin	-0.43333333333333	0
bin	-0.4	0
bin	-0.36666666666667	0
bin	-0.33333333333333	0
bin	-0.3	0
bin	-0.26666666666667	0
bin	-0.23333333333333	0
bin	-0.2	0
bin	-0.16666666666667	0
bin	-0.13333333333333	0
bin	-0.1	0
bin	-0.066666666666667	0
bin	-0.033333333333333	0
bin	0	0
bin	0.033333333333333	0
bin	0.066666666666667	0
bin	0.1	0
bin	0.13333333333333	0
bin	0.16666666666667	0
bin	0.2	0
bin	0.23333333333333	0
bin	0.26666666666667	0
bin	0.3	0
bin	0.33333333333333	0
bin	0.36666666666667	0
bin	0.4	0
bin	0.43333333333333	0
bin	0.46666666666667	0
bin	0.5	0
scalar net2.comp[0].pingApp[0] 	numOutOfOrderArrivals:last 	nan
attr interpolationmode  none
attr title  "ping out-of-order arrivals, last"
scalar net2.comp[0].pingApp[0] 	pingRxSeq:count 	0
attr interpolationmode  none
attr title  "ping rx seq, count"
scalar net2.comp[0].pingApp[0] 	pingTxSeq:count 	0
attr interpolationmode  none
attr title  "ping tx seq, count"
scalar net2.comp[0].pingApp[0] 	numLost:last 	nan
attr interpolationmode  none
attr title  "pings lost, last"
statistic net2.comp[0].pingApp[0] 	rtt:histogram
field count 0
field mean nan
field stddev nan
field sum 0
field sqrsum 0
field min nan
field max nan
attr interpolationmode  none
attr title  "ping round-trip time, histogram"
attr unit  s
bin	-INF	0
bin	-0.5	0
bin	-0.46666666666667	0
bin	-0.43333333333333	0
bin	-0.4	0
bin	-0.36666666666667	0
bin	-0.33333333333333	0
bin	-0.3	0
bin	-0.26666666666667	0
bin	-0.23333333333333	0
bin	-0.2	0
bin	-0.16666666666667	0
bin	-0.13333333333333	0
bin	-0.1	0
bin	-0.066666666666667	0
bin	-0.033333333333333	0
bin	0	0
bin	0.033333333333333	0
bin	0.066666666666667	0
bin	0.1	0
bin	0.13333333333333	0
bin	0.16666666666667	0
bin	0.2	0
bin	0.23333333333333	0
bin	0.26666666666667	0
bin	0.3	0
bin	0.33333333333333	0
bin	0.36666666666667	0
bin	0.4	0
bin	0.43333333333333	0
bin	0.46666666666667	0
bin	0.5	0
scalar net2.comp[1].networkLayer.arp 	sentReply:count 	0
attr title  "ARP replies sent, count"
scalar net2.comp[1].networkLayer.arp 	sentReq:count 	1
attr title  "ARP request sent, count"
scalar net2.comp[1].networkLayer.arp 	failedARPResolution:count 	0
attr title  "ARP failed resolutions, count"
scalar net2.comp[1].networkLayer.arp 	completedARPResolution:count 	1
attr title  "ARP completed resolutions, count"
scalar net2.comp[1].networkLayer.arp 	initiatedARPResolution:count 	1
attr title  "ARP initiated resolutions, count"
scalar net2.comp[1].lo0.lo 	droppedPkBitError:count 	0
attr interpolationmode  none
attr source  dropPkBitError
attr title  "packets dropped/bit error, count"
scalar net2.comp[1].lo0.lo 	droppedPkBitError:sum(packetBytes) 	0
attr interpolationmode  none
attr source  dropPkBitError
attr title  "packets dropped/bit error, sum(packetBytes)"
scalar net2.comp[1].lo0.lo 	rcvdPkFromHL:count 	0
attr interpolationmode  none
attr source  packetReceivedFromUpper
attr title  "packets received from higher layer, count"
scalar net2.comp[1].lo0.lo 	rcvdPkFromHL:sum(packetBytes) 	0
attr interpolationmode  none
attr source  packetReceivedFromUpper
attr title  "packets received from higher layer, sum(packetBytes)"
scalar net2.comp[1].lo0.lo 	passedUpPk:count 	0
attr interpolationmode  none
attr source  packetSentToUpper
attr title  "packets passed to higher layer, count"
scalar net2.comp[1].lo0.lo 	passedUpPk:sum(packetBytes) 	0
attr interpolationmode  none
attr source  packetSentToUpper
attr title  "packets passed to higher layer, sum(packetBytes)"
scalar net2.comp[1].eth[0].mac 	"simulated time" 	2
scalar net2.comp[1].eth[0].mac 	full-duplex 	1
scalar net2.comp[1].eth[0].mac 	"frames/sec sent" 	16.5
scalar net2.comp[1].eth[0].mac 	"frames/sec rcvd" 	17
scalar net2.comp[1].eth[0].mac 	"bits/sec sent" 	11224
scalar net2.comp[1].eth[0].mac 	"bits/sec rcvd" 	51180
scalar net2.comp[1].eth[0].mac 	"rx channel idle (%)" 	99.47732
scalar net2.comp[1].eth[0].mac 	"rx channel utilization (%)" 	0.52268
scalar net2.comp[1].eth[0].mac 	rxPkFromHL:count 	33
attr interpolationmode  none
attr source  rxPkFromHL
attr title  "packet bytes from higher layer, count"
scalar net2.comp[1].eth[0].mac 	rxPkFromHL:sum(packetBytes) 	2806
attr interpolationmode  none
attr source  rxPkFromHL
attr title  "packet bytes from higher layer, sum(packetBytes)"
scalar net2.comp[1].eth[0].mac 	rxPausePkUnits:count 	0
attr interpolationmode  none
attr title  "pause units received, count"
scalar net2.comp[1].eth[0].mac 	rxPausePkUnits:sum 	0
attr interpolationmode  none
attr title  "pause units received, sum"
scalar net2.comp[1].eth[0].mac 	txPausePkUnits:count 	0
attr interpolationmode  none
attr title  "pause units sent, count"
scalar net2.comp[1].eth[0].mac 	txPausePkUnits:sum 	0
attr interpolationmode  none
attr title  "pause units sent, sum"
scalar net2.comp[1].eth[0].mac 	txPk:count 	33
attr interpolationmode  none
attr source  txPk
attr title  "packets transmitted, count"
scalar net2.comp[1].eth[0].mac 	txPk:sum(packetBytes) 	2806
attr interpolationmode  none
attr source  txPk
attr title  "packets transmitted, sum(packetBytes)"
scalar net2.comp[1].eth[0].mac 	droppedPkNotForUs:count 	0
attr interpolationmode  none
attr source  dropPkNotForUs
attr title  "packets dropped/not for us, count"
scalar net2.comp[1].eth[0].mac 	droppedPkNotForUs:sum(packetBytes) 	0
attr interpolationmode  none
attr source  dropPkNotForUs
attr title  "packets dropped/not for us, sum(packetBytes)"
scalar net2.comp[1].eth[0].mac 	droppedPkBitError:count 	0
attr interpolationmode  none
attr source  dropPkBitError
attr title  "packets dropped/bit error, count"
scalar net2.comp[1].eth[0].mac 	droppedPkBitError:sum(packetBytes) 	0
attr interpolationmode  none
attr source  dropPkBitError
attr title  "packets dropped/bit error, sum(packetBytes)"
scalar net2.comp[1].eth[0].mac 	droppedPkIfaceDown:count 	0
attr interpolationmode  none
attr source  dropPkIfaceDown
attr title  "packets dropped/interface down, count"
scalar net2.comp[1].eth[0].mac 	droppedPkIfaceDown:sum(packetBytes) 	0
attr interpolationmode  none
attr source  dropPkIfaceDown
attr title  "packets dropped/interface down, sum(packetBytes)"
scalar net2.comp[1].eth[0].mac 	rxPkOk:count 	34
attr interpolationmode  none
attr source  rxPkOk
attr title  "packets received OK, count"
scalar net2.comp[1].eth[0].mac 	rxPkOk:sum(packetBytes) 	12795
attr interpolationmode  none
attr source  rxPkOk
attr title  "packets received OK, sum(packetBytes)"
scalar net2.comp[1].eth[0].mac 	passedUpPk:count 	34
attr interpolationmode  none
attr source  packetSentToUpper
attr title  "packets passed to higher layer, count"
scalar net2.comp[1].eth[0].mac 	passedUpPk:sum(packetBytes) 	12795
attr interpolationmode  none
attr source  packetSentToUpper
attr title  "packets passed to higher layer, sum(packetBytes)"
scalar net2.comp[1].eth[0].encap 	pauseSent:count 	0
attr title  "pause sent, count"
scalar net2.comp[1].eth[0].encap 	pauseSent:sum 	0
attr title  "pause sent, sum"
scalar net2.comp[1].eth[0].encap 	decapPk:count 	34
attr interpolationmode  none
attr source  decapPk
attr title  "packets decapsulated, count"
scalar net2.comp[1].eth[0].encap 	decapPk:sum(packetBytes) 	12075
attr interpolationmode  none
attr source  decapPk
attr title  "packets decapsulated, sum(packetBytes)"
scalar net2.comp[1].eth[0].encap 	encapPk:count 	33
attr interpolationmode  none
attr source  encapPk
attr title  "packets encapsulated, count"
scalar net2.comp[1].eth[0].encap 	encapPk:sum(packetBytes) 	2026
attr interpolationmode  none
attr source  encapPk
attr title  "packets encapsulated, sum(packetBytes)"
scalar net2.comp[1].eth[1].mac 	"simulated time" 	2
scalar net2.comp[1].eth[1].mac 	full-duplex 	1
scalar net2.comp[1].eth[1].mac 	"frames/sec sent" 	0
scalar net2.comp[1].eth[1].mac 	"frames/sec rcvd" 	2
scalar net2.comp[1].eth[1].mac 	"bits/sec sent" 	0
scalar net2.comp[1].eth[1].mac 	"bits/sec rcvd" 	1024
scalar net2.comp[1].eth[1].mac 	"rx channel idle (%)" 	99.98848
scalar net2.comp[1].eth[1].mac 	"rx channel utilization (%)" 	0.01152
scalar net2.comp[1].eth[1].mac 	rxPkFromHL:count 	0
attr interpolationmode  none
attr source  rxPkFromHL
attr title  "packet bytes from higher layer, count"
scalar net2.comp[1].eth[1].mac 	rxPkFromHL:sum(packetBytes) 	0
attr interpolationmode  none
attr source  rxPkFromHL
attr title  "packet bytes from higher layer, sum(packetBytes)"
scalar net2.comp[1].eth[1].mac 	rxPausePkUnits:count 	0
attr interpolationmode  none
attr title  "pause units received, count"
scalar net2.comp[1].eth[1].mac 	rxPausePkUnits:sum 	0
attr interpolationmode  none
attr title  "pause units received, sum"
scalar net2.comp[1].eth[1].mac 	txPausePkUnits:count 	0
attr interpolationmode  none
attr title  "pause units sent, count"
scalar net2.comp[1].eth[1].mac 	txPausePkUnits:sum 	0
attr interpolationmode  none
attr title  "pause units sent, sum"
scalar net2.comp[1].eth[1].mac 	txPk:count 	0
attr interpolationmode  none
attr source  txPk
attr title  "packets transmitted, count"
scalar net2.comp[1].eth[1].mac 	txPk:sum(packetBytes) 	0
attr interpolationmode  none
attr source  txPk
attr title  "packets transmitted, sum(packetBytes)"
scalar net2.comp[1].eth[1].mac 	droppedPkNotForUs:count 	0
attr interpolationmode  none
attr source  dropPkNotForUs
attr title  "packets dropped/not for us, count"
scalar net2.comp[1].eth[1].mac 	droppedPkNotForUs:sum(packetBytes) 	0
attr interpolationmode  none
attr source  dropPkNotForUs
attr title  "packets dropped/not for us, sum(packetBytes)"
scalar net2.comp[1].eth[1].mac 	droppedPkBitError:count 	0
attr interpolationmode  none
attr source  dropPkBitError
attr title  "packets dropped/bit error, count"
scalar net2.comp[1].eth[1].mac 	droppedPkBitError:sum(packetBytes) 	0
attr interpolationmode  none
attr source  dropPkBitError
attr title  "packets dropped/bit error, sum(packetBytes)"
scalar net2.comp[1].eth[1].mac 	droppedPkIfaceDown:count 	0
attr interpolationmode  none
attr source  dropPkIfaceDown
attr title  "packets dropped/interface down, count"
scalar net2.comp[1].eth[1].mac 	droppedPkIfaceDown:sum(packetBytes) 	0
attr interpolationmode  none
attr source  dropPkIfaceDown
attr title  "packets dropped/interface down, sum(packetBytes)"
scalar net2.comp[1].eth[1].mac 	rxPkOk:count 	4
attr interpolationmode  none
attr source  rxPkOk
attr title  "packets received OK, count"
scalar net2.comp[1].eth[1].mac 	rxPkOk:sum(packetBytes) 	256
attr interpolationmode  none
attr source  rxPkOk
attr title  "packets received OK, sum(packetBytes)"
scalar net2.comp[1].eth[1].mac 	passedUpPk:count 	4
attr interpolationmode  none
attr source  packetSentToUpper
attr title  "packets passed to higher layer, count"
scalar net2.comp[1].eth[1].mac 	passedUpPk:sum(packetBytes) 	256
attr interpolationmode  none
attr source  packetSentToUpper
attr title  "packets passed to higher layer, sum(packetBytes)"
scalar net2.comp[1].eth[1].encap 	pauseSent:count 	0
attr title  "pause sent, count"
scalar net2.comp[1].eth[1].encap 	pauseSent:sum 	0
attr title  "pause sent, sum"
scalar net2.comp[1].eth[1].encap 	decapPk:count 	4
attr interpolationmode  none
attr source  decapPk
attr title  "packets decapsulated, count"
scalar net2.comp[1].eth[1].encap 	decapPk:sum(packetBytes) 	112
attr interpolationmode  none
attr source  decapPk
attr title  "packets decapsulated, sum(packetBytes)"
scalar net2.comp[1].eth[1].encap 	encapPk:count 	0
attr interpolationmode  none
attr source  encapPk
attr title  "packets encapsulated, count"
scalar net2.comp[1].eth[1].encap 	encapPk:sum(packetBytes) 	0
attr interpolationmode  none
attr source  encapPk
attr title  "packets encapsulated, sum(packetBytes)"
scalar net2.comp[1].tcpApp[0] 	numActiveSessions:max 	1
attr interpolationmode  sample-hold
attr source  sum(connect)
attr title  "number of active sessions, max"
scalar net2.comp[1].tcpApp[0] 	numActiveSessions:timeavg 	0.0320678
attr interpolationmode  sample-hold
attr source  sum(connect)
attr title  "number of active sessions, timeavg"
scalar net2.comp[1].tcpApp[0] 	numSessions:last 	2
attr source  sum(connect+1)/2
attr title  "total number of sessions, last"
scalar net2.comp[1].tcpApp[0] 	sentPk:count 	2
attr interpolationmode  none
attr source  sentPk
attr title  "packets sent, count"
scalar net2.comp[1].tcpApp[0] 	sentPk:sum(packetBytes) 	702
attr interpolationmode  none
attr source  sentPk
attr title  "packets sent, sum(packetBytes)"
scalar net2.comp[1].tcpApp[0] 	rcvdPk:count 	2
attr interpolationmode  none
attr source  rcvdPk
attr title  "packets received, count"
scalar net2.comp[1].tcpApp[0] 	rcvdPk:sum(packetBytes) 	10747
attr interpolationmode  none
attr source  rcvdPk
attr title  "packets received, sum(packetBytes)"
statistic net2.comp[1].tcpApp[0] 	endToEndDelay:histogram
field count 2
field mean 0.0137132
field stddev 0.0014962379489907
field sum 0.0274264
field sqrsum 0.00037834243648
field min 0.0126552
field max 0.0147712
attr interpolationmode  none
attr source  messageAge(rcvdPk)
attr title  "end-to-end delay, histogram"
attr unit  s
bin	-INF	0
bin	0.0115972	0
bin	0.011738266666667	0
bin	0.011879333333333	0
bin	0.0120204	0
bin	0.012161466666667	0
bin	0.012302533333333	0
bin	0.0124436	0
bin	0.012584666666667	1
bin	0.012725733333333	0
bin	0.0128668	0
bin	0.013007866666667	0
bin	0.013148933333333	0
bin	0.01329	0
bin	0.013431066666667	0
bin	0.013572133333333	0
bin	0.0137132	0
bin	0.013854266666667	0
bin	0.013995333333333	0
bin	0.0141364	0
bin	0.014277466666667	0
bin	0.014418533333333	0
bin	0.0145596	0
bin	0.014700666666667	1
bin	0.014841733333333	0
bin	0.0149828	0
bin	0.015123866666667	0
bin	0.015264933333333	0
bin	0.015406	0
bin	0.015547066666667	0
bin	0.015688133333333	0
bin	0.0158292	0
scalar net2.comp[1].tcpApp[1] 	numActiveSessions:max 	nan
attr interpolationmode  sample-hold
attr source  sum(connect)
attr title  "number of active sessions, max"
scalar net2.comp[1].tcpApp[1] 	numActiveSessions:timeavg 	nan
attr interpolationmode  sample-hold
attr source  sum(connect)
attr title  "number of active sessions, timeavg"
scalar net2.comp[1].tcpApp[1] 	numSessions:last 	nan
attr source  sum(connect+1)/2
attr title  "total number of sessions, last"
scalar net2.comp[1].tcpApp[1] 	sentPk:count 	0
attr interpolationmode  none
attr source  sentPk
attr title  "packets sent, count"
scalar net2.comp[1].tcpApp[1] 	sentPk:sum(packetBytes) 	0
attr interpolationmode  none
attr source  sentPk
attr title  "packets sent, sum(packetBytes)"
scalar net2.comp[1].tcpApp[1] 	rcvdPk:count 	0
attr interpolationmode  none
attr source  rcvdPk
attr title  "packets received, count"
scalar net2.comp[1].tcpApp[1] 	rcvdPk:sum(packetBytes) 	0
attr interpolationmode  none
attr source  rcvdPk
attr title  "packets received, sum(packetBytes)"
statistic net2.comp[1].tcpApp[1] 	endToEndDelay:histogram
field count 0
field mean nan
field stddev nan
field sum 0
field sqrsum 0
field min nan
field max nan
attr interpolationmode  none
attr source  messageAge(rcvdPk)
attr title  "end-to-end delay, histogram"
attr unit  s
bin	-INF	0
bin	-0.5	0
bin	-0.46666666666667	0
bin	-0.43333333333333	0
bin	-0.4	0
bin	-0.36666666666667	0
bin	-0.33333333333333	0
bin	-0.3	0
bin	-0.26666666666667	0
bin	-0.23333333333333	0
bin	-0.2	0
bin	-0.16666666666667	0
bin	-0.13333333333333	0
bin	-0.1	0
bin	-0.066666666666667	0
bin	-0.033333333333333	0
bin	0	0
bin	0.033333333333333	0
bin	0.066666666666667	0
bin	0.1	0
bin	0.13333333333333	0
bin	0.16666666666667	0
bin	0.2	0
bin	0.23333333333333	0
bin	0.26666666666667	0
bin	0.3	0
bin	0.33333333333333	0
bin	0.36666666666667	0
bin	0.4	0
bin	0.43333333333333	0
bin	0.46666666666667	0
bin	0.5	0
scalar net2.comp[1].pingApp[0] 	numOutOfOrderArrivals:last 	nan
attr interpolationmode  none
attr title  "ping out-of-order arrivals, last"
scalar net2.comp[1].pingApp[0] 	pingRxSeq:count 	0
attr interpolationmode  none
attr title  "ping rx seq, count"
scalar net2.comp[1].pingApp[0] 	pingTxSeq:count 	0
attr interpolationmode  none
attr title  "ping tx seq, count"
scalar net2.comp[1].pingApp[0] 	numLost:last 	nan
attr interpolationmode  none
attr title  "pings lost, last"
statistic net2.comp[1].pingApp[0] 	rtt:histogram
field count 0
field mean nan
field stddev nan
field sum 0
field sqrsum 0
field min nan
field max nan
attr interpolationmode  none
attr title  "ping round-trip time, histogram"
attr unit  s
bin	-INF	0
bin	-0.5	0
bin	-0.46666666666667	0
bin	-0.43333333333333	0
bin	-0.4	0
bin	-0.36666666666667	0
bin	-0.33333333333333	0
bin	-0.3	0
bin	-0.26666666666667	0
bin	-0.23333333333333	0
bin	-0.2	0
bin	-0.16666666666667	0
bin	-0.13333333333333	0
bin	-0.1	0
bin	-0.066666666666667	0
bin	-0.033333333333333	0
bin	0	0
bin	0.033333333333333	0
bin	0.066666666666667	0
bin	0.1	0
bin	0.13333333333333	0
bin	0.16666666666667	0
bin	0.2	0
bin	0.23333333333333	0
bin	0.26666666666667	0
bin	0.3	0
bin	0.33333333333333	0
bin	0.36666666666667	0
bin	0.4	0
bin	0.43333333333333	0
bin	0.46666666666667	0
bin	0.5	0
scalar net2.comp[2].networkLayer.arp 	sentReply:count 	0
attr title  "ARP replies sent, count"
scalar net2.comp[2].networkLayer.arp 	sentReq:count 	1
attr title  "ARP request sent, count"
scalar net2.comp[2].networkLayer.arp 	failedARPResolution:count 	0
attr title  "ARP failed resolutions, count"
scalar net2.comp[2].networkLayer.arp 	completedARPResolution:count 	1
[...]
scalar net2.comp1[0].eth[0].mac 	rxPkFromHL:count 	24
attr interpolationmode  none
attr source  rxPkFromHL
attr title  "packet bytes from higher layer, count"
scalar net2.comp1[0].eth[0].mac 	rxPkFromHL:sum(packetBytes) 	2186
attr interpolationmode  none
attr source  rxPkFromHL
attr title  "packet bytes from higher layer, sum(packetBytes)"
scalar net2.comp1[0].eth[0].mac 	rxPausePkUnits:count 	0
attr interpolationmode  none
attr title  "pause units received, count"
scalar net2.comp1[0].eth[0].mac 	rxPausePkUnits:sum 	0
attr interpolationmode  none
attr title  "pause units received, sum"
scalar net2.comp1[0].eth[0].mac 	txPausePkUnits:count 	0
attr interpolationmode  none
attr title  "pause units sent, count"
scalar net2.comp1[0].eth[0].mac 	txPausePkUnits:sum 	0
attr interpolationmode  none
attr title  "pause units sent, sum"
scalar net2.comp1[0].eth[0].mac 	txPk:count 	24
attr interpolationmode  none
attr source  txPk
attr title  "packets transmitted, count"
scalar net2.comp1[0].eth[0].mac 	txPk:sum(packetBytes) 	2186
attr interpolationmode  none
attr source  txPk
attr title  "packets transmitted, sum(packetBytes)"
scalar net2.comp1[0].eth[0].mac 	droppedPkNotForUs:count 	0
attr interpolationmode  none
attr source  dropPkNotForUs
attr title  "packets dropped/not for us, count"
scalar net2.comp1[0].eth[0].mac 	droppedPkNotForUs:sum(packetBytes) 	0
attr interpolationmode  none
attr source  dropPkNotForUs
attr title  "packets dropped/not for us, sum(packetBytes)"
scalar net2.comp1[0].eth[0].mac 	droppedPkBitError:count 	0
attr interpolationmode  none
attr source  dropPkBitError
attr title  "packets dropped/bit error, count"
scalar net2.comp1[0].eth[0].mac 	droppedPkBitError:sum(packetBytes) 	0
attr interpolationmode  none
attr source  dropPkBitError
attr title  "packets dropped/bit error, sum(packetBytes)"
scalar net2.comp1[0].eth[0].mac 	droppedPkIfaceDown:count 	0
attr interpolationmode  none
attr source  dropPkIfaceDown
attr title  "packets dropped/interface down, count"
scalar net2.comp1[0].eth[0].mac 	droppedPkIfaceDown:sum(packetBytes) 	0
attr interpolationmode  none
attr source  dropPkIfaceDown
attr title  "packets dropped/interface down, sum(packetBytes)"
scalar net2.comp1[0].eth[0].mac 	rxPkOk:count 	24
attr interpolationmode  none
attr source  rxPkOk
attr title  "packets received OK, count"
scalar net2.comp1[0].eth[0].mac 	rxPkOk:sum(packetBytes) 	7110
attr interpolationmode  none
attr source  rxPkOk
attr title  "packets received OK, sum(packetBytes)"
scalar net2.comp1[0].eth[0].mac 	passedUpPk:count 	24
attr interpolationmode  none
attr source  packetSentToUpper
attr title  "packets passed to higher layer, count"
scalar net2.comp1[0].eth[0].mac 	passedUpPk:sum(packetBytes) 	7110
attr interpolationmode  none
attr source  packetSentToUpper
attr title  "packets passed to higher layer, sum(packetBytes)"
scalar net2.comp1[0].eth[0].encap 	pauseSent:count 	0
attr title  "pause sent, count"
scalar net2.comp1[0].eth[0].encap 	pauseSent:sum 	0
attr title  "pause sent, sum"
scalar net2.comp1[0].eth[0].encap 	decapPk:count 	24
attr interpolationmode  none
attr source  decapPk
attr title  "packets decapsulated, count"
scalar net2.comp1[0].eth[0].encap 	decapPk:sum(packetBytes) 	6588
attr interpolationmode  none
attr source  decapPk
attr title  "packets decapsulated, sum(packetBytes)"
scalar net2.comp1[0].eth[0].encap 	encapPk:count 	24
attr interpolationmode  none
attr source  encapPk
attr title  "packets encapsulated, count"
scalar net2.comp1[0].eth[0].encap 	encapPk:sum(packetBytes) 	1622
attr interpolationmode  none
attr source  encapPk
attr title  "packets encapsulated, sum(packetBytes)"
scalar net2.comp1[0].tcpApp[0] 	numActiveSessions:max 	1
attr interpolationmode  sample-hold
attr source  sum(connect)
attr title  "number of active sessions, max"
scalar net2.comp1[0].tcpApp[0] 	numActiveSessions:timeavg 	0.0146068
attr interpolationmode  sample-hold
attr source  sum(connect)
attr title  "number of active sessions, timeavg"
scalar net2.comp1[0].tcpApp[0] 	numSessions:last 	2
attr source  sum(connect+1)/2
attr title  "total number of sessions, last"
scalar net2.comp1[0].tcpApp[0] 	sentPk:count 	2
attr interpolationmode  none
attr source  sentPk
attr title  "packets sent, count"
scalar net2.comp1[0].tcpApp[0] 	sentPk:sum(packetBytes) 	658
attr interpolationmode  none
attr source  sentPk
attr title  "packets sent, sum(packetBytes)"
scalar net2.comp1[0].tcpApp[0] 	rcvdPk:count 	2
attr interpolationmode  none
attr source  rcvdPk
attr title  "packets received, count"
scalar net2.comp1[0].tcpApp[0] 	rcvdPk:sum(packetBytes) 	5648
attr interpolationmode  none
attr source  rcvdPk
attr title  "packets received, sum(packetBytes)"
statistic net2.comp1[0].tcpApp[0] 	endToEndDelay:histogram
field count 2
field mean 0.0069508
field stddev 0.00065619509294111
field sum 0.0139016
field sqrsum 9.705783328e-005
field min 0.0064868
field max 0.0074148
attr interpolationmode  none
attr source  messageAge(rcvdPk)
attr title  "end-to-end delay, histogram"
attr unit  s
bin	-INF	0
bin	0.0060228	0
bin	0.0060846666666667	0
bin	0.0061465333333333	0
bin	0.0062084	0
bin	0.0062702666666667	0
bin	0.0063321333333333	0
bin	0.006394	0
bin	0.0064558666666667	1
bin	0.0065177333333333	0
bin	0.0065796	0
bin	0.0066414666666667	0
bin	0.0067033333333333	0
bin	0.0067652	0
bin	0.0068270666666667	0
bin	0.0068889333333333	0
bin	0.0069508	0
bin	0.0070126666666667	0
bin	0.0070745333333333	0
bin	0.0071364	0
bin	0.0071982666666667	0
bin	0.0072601333333333	0
bin	0.007322	0
bin	0.0073838666666667	1
bin	0.0074457333333333	0
bin	0.0075076	0
bin	0.0075694666666667	0
bin	0.0076313333333333	0
bin	0.0076932	0
bin	0.0077550666666667	0
bin	0.0078169333333333	0
bin	0.0078788	0
scalar net2.comp1[0].tcpApp[1] 	numActiveSessions:max 	nan
attr interpolationmode  sample-hold
attr source  sum(connect)
attr title  "number of active sessions, max"
scalar net2.comp1[0].tcpApp[1] 	numActiveSessions:timeavg 	nan
attr interpolationmode  sample-hold
attr source  sum(connect)
attr title  "number of active sessions, timeavg"
scalar net2.comp1[0].tcpApp[1] 	numSessions:last 	nan
attr source  sum(connect+1)/2
attr title  "total number of sessions, last"
scalar net2.comp1[0].tcpApp[1] 	sentPk:count 	0
attr interpolationmode  none
attr source  sentPk
attr title  "packets sent, count"
scalar net2.comp1[0].tcpApp[1] 	sentPk:sum(packetBytes) 	0
attr interpolationmode  none
attr source  sentPk
attr title  "packets sent, sum(packetBytes)"
scalar net2.comp1[0].tcpApp[1] 	rcvdPk:count 	0
attr interpolationmode  none
attr source  rcvdPk
attr title  "packets received, count"
scalar net2.comp1[0].tcpApp[1] 	rcvdPk:sum(packetBytes) 	0
attr interpolationmode  none
attr source  rcvdPk
attr title  "packets received, sum(packetBytes)"
statistic net2.comp1[0].tcpApp[1] 	endToEndDelay:histogram
field count 0
field mean nan
field stddev nan
field sum 0
field sqrsum 0
field min nan
field max nan
attr interpolationmode  none
attr source  messageAge(rcvdPk)
attr title  "end-to-end delay, histogram"
attr unit  s
bin	-INF	0
bin	-0.5	0
bin	-0.46666666666667	0
bin	-0.43333333333333	0
bin	-0.4	0
bin	-0.36666666666667	0
bin	-0.33333333333333	0
bin	-0.3	0
bin	-0.26666666666667	0
bin	-0.23333333333333	0
bin	-0.2	0
bin	-0.16666666666667	0
bin	-0.13333333333333	0
bin	-0.1	0
bin	-0.066666666666667	0
bin	-0.033333333333333	0
bin	0	0
bin	0.033333333333333	0
bin	0.066666666666667	0
bin	0.1	0
bin	0.13333333333333	0
bin	0.16666666666667	0
bin	0.2	0
bin	0.23333333333333	0
bin	0.26666666666667	0
bin	0.3	0
bin	0.33333333333333	0
bin	0.36666666666667	0
bin	0.4	0
bin	0.43333333333333	0
bin	0.46666666666667	0
bin	0.5	0
scalar net2.comp1[0].pingApp[0] 	numOutOfOrderArrivals:last 	nan
attr interpolationmode  none
attr title  "ping out-of-order arrivals, last"
scalar net2.comp1[0].pingApp[0] 	pingRxSeq:count 	0
attr interpolationmode  none
attr title  "ping rx seq, count"
scalar net2.comp1[0].pingApp[0] 	pingTxSeq:count 	0
attr interpolationmode  none
attr title  "ping tx seq, count"
scalar net2.comp1[0].pingApp[0] 	numLost:last 	nan
attr interpolationmode  none
attr title  "pings lost, last"
statistic net2.comp1[0].pingApp[0] 	rtt:histogram
field count 0
field mean nan
field stddev nan
field sum 0
field sqrsum 0
field min nan
field max nan
attr interpolationmode  none
attr title  "ping round-trip time, histogram"
attr unit  s
bin	-INF	0
bin	-0.5	0
bin	-0.46666666666667	0
bin	-0.43333333333333	0
bin	-0.4	0
bin	-0.36666666666667	0
bin	-0.33333333333333	0
bin	-0.3	0
bin	-0.26666666666667	0
bin	-0.23333333333333	0
bin	-0.2	0
bin	-0.16666666666667	0
bin	-0.13333333333333	0
bin	-0.1	0
bin	-0.066666666666667	0
bin	-0.033333333333333	0
bin	0	0
bin	0.033333333333333	0
bin	0.066666666666667	0
bin	0.1	0
bin	0.13333333333333	0
bin	0.16666666666667	0
bin	0.2	0
bin	0.23333333333333	0
bin	0.26666666666667	0
bin	0.3	0
bin	0.33333333333333	0
bin	0.36666666666667	0
bin	0.4	0
bin	0.43333333333333	0
bin	0.46666666666667	0
bin	0.5	0
scalar net2.comp1[1].networkLayer.arp 	sentReply:count 	0
attr title  "ARP replies sent, count"
scalar net2.comp1[1].networkLayer.arp 	sentReq:count 	1
attr title  "ARP request sent, count"
scalar net2.comp1[1].networkLayer.arp 	failedARPResolution:count 	0
attr title  "ARP failed resolutions, count"
scalar net2.comp1[1].networkLayer.arp 	completedARPResolution:count 	1
attr title  "ARP completed resolutions, count"
scalar net2.comp1[1].networkLayer.arp 	initiatedARPResolution:count 	1
attr title  "ARP initiated resolutions, count"
scalar net2.comp1[1].lo0.lo 	droppedPkBitError:count 	0
attr interpolationmode  none
attr source  dropPkBitError
attr title  "packets dropped/bit error, count"
scalar net2.comp1[1].lo0.lo 	droppedPkBitError:sum(packetBytes) 	0
attr interpolationmode  none
attr source  dropPkBitError
attr title  "packets dropped/bit error, sum(packetBytes)"
scalar net2.comp1[1].lo0.lo 	rcvdPkFromHL:count 	0
attr interpolationmode  none
attr source  packetReceivedFromUpper
attr title  "packets received from higher layer, count"
scalar net2.comp1[1].lo0.lo 	rcvdPkFromHL:sum(packetBytes) 	0
attr interpolationmode  none
attr source  packetReceivedFromUpper
attr title  "packets received from higher layer, sum(packetBytes)"
scalar net2.comp1[1].lo0.lo 	passedUpPk:count 	0
attr interpolationmode  none
attr source  packetSentToUpper
attr title  "packets passed to higher layer, count"
scalar net2.comp1[1].lo0.lo 	passedUpPk:sum(packetBytes) 	0
attr interpolationmode  none
attr source  packetSentToUpper
attr title  "packets passed to higher layer, sum(packetBytes)"
scalar net2.comp1[1].eth[0].mac 	"simulated time" 	2
scalar net2.comp1[1].eth[0].mac 	full-duplex 	1
scalar net2.comp1[1].eth[0].mac 	"frames/sec sent" 	10.5
scalar net2.comp1[1].eth[0].mac 	"frames/sec rcvd" 	10.5
scalar net2.comp1[1].eth[0].mac 	"bits/sec sent" 	8156
scalar net2.comp1[1].eth[0].mac 	"bits/sec rcvd" 	24056
scalar net2.comp1[1].eth[0].mac 	"rx channel idle (%)" 	99.75272
scalar net2.comp1[1].eth[0].mac 	"rx channel utilization (%)" 	0.24728
scalar net2.comp1[1].eth[0].mac 	rxPkFromHL:count 	21
attr interpolationmode  none
attr source  rxPkFromHL
attr title  "packet bytes from higher layer, count"
scalar net2.comp1[1].eth[0].mac 	rxPkFromHL:sum(packetBytes) 	2039
attr interpolationmode  none
attr source  rxPkFromHL
attr title  "packet bytes from higher layer, sum(packetBytes)"
scalar net2.comp1[1].eth[0].mac 	rxPausePkUnits:count 	0
attr interpolationmode  none
attr title  "pause units received, count"
scalar net2.comp1[1].eth[0].mac 	rxPausePkUnits:sum 	0
attr interpolationmode  none
attr title  "pause units received, sum"
scalar net2.comp1[1].eth[0].mac 	txPausePkUnits:count 	0
attr interpolationmode  none
attr title  "pause units sent, count"
scalar net2.comp1[1].eth[0].mac 	txPausePkUnits:sum 	0
attr interpolationmode  none
attr title  "pause units sent, sum"
scalar net2.comp1[1].eth[0].mac 	txPk:count 	21
attr interpolationmode  none
attr source  txPk
attr title  "packets transmitted, count"
scalar net2.comp1[1].eth[0].mac 	txPk:sum(packetBytes) 	2039
attr interpolationmode  none
attr source  txPk
attr title  "packets transmitted, sum(packetBytes)"
scalar net2.comp1[1].eth[0].mac 	droppedPkNotForUs:count 	0
attr interpolationmode  none
attr source  dropPkNotForUs
attr title  "packets dropped/not for us, count"
scalar net2.comp1[1].eth[0].mac 	droppedPkNotForUs:sum(packetBytes) 	0
attr interpolationmode  none
attr source  dropPkNotForUs
attr title  "packets dropped/not for us, sum(packetBytes)"
scalar net2.comp1[1].eth[0].mac 	droppedPkBitError:count 	0
attr interpolationmode  none
attr source  dropPkBitError
attr title  "packets dropped/bit error, count"
scalar net2.comp1[1].eth[0].mac 	droppedPkBitError:sum(packetBytes) 	0
attr interpolationmode  none
attr source  dropPkBitError
attr title  "packets dropped/bit error, sum(packetBytes)"
scalar net2.comp1[1].eth[0].mac 	droppedPkIfaceDown:count 	0
attr interpolationmode  none
attr source  dropPkIfaceDown
attr title  "packets dropped/interface down, count"
scalar net2.comp1[1].eth[0].mac 	droppedPkIfaceDown:sum(packetBytes) 	0
attr interpolationmode  none
attr source  dropPkIfaceDown
attr title  "packets dropped/interface down, sum(packetBytes)"
scalar net2.comp1[1].eth[0].mac 	rxPkOk:count 	21
attr interpolationmode  none
attr source  rxPkOk
attr title  "packets received OK, count"
scalar net2.comp1[1].eth[0].mac 	rxPkOk:sum(packetBytes) 	6014
attr interpolationmode  none
attr source  rxPkOk
attr title  "packets received OK, sum(packetBytes)"
scalar net2.comp1[1].eth[0].mac 	passedUpPk:count 	21
attr interpolationmode  none
attr source  packetSentToUpper
attr title  "packets passed to higher layer, count"
scalar net2.comp1[1].eth[0].mac 	passedUpPk:sum(packetBytes) 	6014
attr interpolationmode  none
attr source  packetSentToUpper
attr title  "packets passed to higher layer, sum(packetBytes)"
scalar net2.comp1[1].eth[0].encap 	pauseSent:count 	0
attr title  "pause sent, count"
scalar net2.comp1[1].eth[0].encap 	pauseSent:sum 	0
attr title  "pause sent, sum"
scalar net2.comp1[1].eth[0].encap 	decapPk:count 	21
attr interpolationmode  none
attr source  decapPk
attr title  "packets decapsulated, count"
scalar net2.comp1[1].eth[0].encap 	decapPk:sum(packetBytes) 	5546
attr interpolationmode  none
attr source  decapPk
attr title  "packets decapsulated, sum(packetBytes)"
scalar net2.comp1[1].eth[0].encap 	encapPk:count 	21
attr interpolationmode  none
attr source  encapPk
attr title  "packets encapsulated, count"
scalar net2.comp1[1].eth[0].encap 	encapPk:sum(packetBytes) 	1547
attr interpolationmode  none
attr source  encapPk
attr title  "packets encapsulated, sum(packetBytes)"
scalar net2.comp1[1].tcpApp[0] 	numActiveSessions:max 	1
attr interpolationmode  sample-hold
attr source  sum(connect)
attr title  "number of active sessions, max"
scalar net2.comp1[1].tcpApp[0] 	numActiveSessions:timeavg 	0.0173468
attr interpolationmode  sample-hold
attr source  sum(connect)
attr title  "number of active sessions, timeavg"
scalar net2.comp1[1].tcpApp[0] 	numSessions:last 	2
attr source  sum(connect+1)/2
attr title  "total number of sessions, last"
scalar net2.comp1[1].tcpApp[0] 	sentPk:count 	2
attr interpolationmode  none
attr source  sentPk
attr title  "packets sent, count"
scalar net2.comp1[1].tcpApp[0] 	sentPk:sum(packetBytes) 	703
attr interpolationmode  none
attr source  sentPk
attr title  "packets sent, sum(packetBytes)"
scalar net2.comp1[1].tcpApp[0] 	rcvdPk:count 	2
attr interpolationmode  none
attr source  rcvdPk
attr title  "packets received, count"
scalar net2.comp1[1].tcpApp[0] 	rcvdPk:sum(packetBytes) 	4726
attr interpolationmode  none
attr source  rcvdPk
attr title  "packets received, sum(packetBytes)"
statistic net2.comp1[1].tcpApp[0] 	endToEndDelay:histogram
field count 2
field mean 0.008279
field stddev 0.0049483332547435
field sum 0.016558
field sqrsum 0.000161569684
field min 0.00478
field max 0.011778
attr interpolationmode  none
attr source  messageAge(rcvdPk)
attr title  "end-to-end delay, histogram"
attr unit  s
bin	-INF	0
bin	0.001281	0
bin	0.0017475333333333	0
bin	0.0022140666666667	0
bin	0.0026806	0
bin	0.0031471333333333	0
bin	0.0036136666666667	0
bin	0.0040802	0
bin	0.0045467333333333	1
bin	0.0050132666666667	0
bin	0.0054798	0
bin	0.0059463333333333	0
bin	0.0064128666666667	0
bin	0.0068794	0
bin	0.0073459333333333	0
bin	0.0078124666666667	0
bin	0.008279	0
bin	0.0087455333333333	0
bin	0.0092120666666667	0
bin	0.0096786	0
bin	0.010145133333333	0
bin	0.010611666666667	0
bin	0.0110782	0
bin	0.011544733333333	1
bin	0.012011266666667	0
bin	0.0124778	0
bin	0.012944333333333	0
bin	0.013410866666667	0
bin	0.0138774	0
bin	0.014343933333333	0
bin	0.014810466666667	0
bin	0.015277	0
scalar net2.comp1[1].tcpApp[1] 	numActiveSessions:max 	nan
attr interpolationmode  sample-hold
attr source  sum(connect)
attr title  "number of active sessions, max"
scalar net2.comp1[1].tcpApp[1] 	numActiveSessions:timeavg 	nan
attr interpolationmode  sample-hold
attr source  sum(connect)
attr title  "number of active sessions, timeavg"
scalar net2.comp1[1].tcpApp[1] 	numSessions:last 	nan
attr source  sum(connect+1)/2
attr title  "total number of sessions, last"
scalar net2.comp1[1].tcpApp[1] 	sentPk:count 	0
attr interpolationmode  none
attr source  sentPk
attr title  "packets sent, count"
scalar net2.comp1[1].tcpApp[1] 	sentPk:sum(packetBytes) 	0
attr interpolationmode  none
attr source  sentPk
attr title  "packets sent, sum(packetBytes)"
scalar net2.comp1[1].tcpApp[1] 	rcvdPk:count 	0
attr interpolationmode  none
attr source  rcvdPk
attr title  "packets received, count"
scalar net2.comp1[1].tcpApp[1] 	rcvdPk:sum(packetBytes) 	0
attr interpolationmode  none
attr source  rcvdPk
attr title  "packets received, sum(packetBytes)"
statistic net2.comp1[1].tcpApp[1] 	endToEndDelay:histogram
field count 0
field mean nan
field stddev nan
field sum 0
field sqrsum 0
field min nan
field max nan
attr interpolationmode  none
attr source  messageAge(rcvdPk)
attr title  "end-to-end delay, histogram"
attr unit  s
bin	-INF	0
bin	-0.5	0
bin	-0.46666666666667	0
bin	-0.43333333333333	0
bin	-0.4	0
bin	-0.36666666666667	0
bin	-0.33333333333333	0
bin	-0.3	0
bin	-0.26666666666667	0
bin	-0.23333333333333	0
bin	-0.2	0
bin	-0.16666666666667	0
bin	-0.13333333333333	0
bin	-0.1	0
bin	-0.066666666666667	0
bin	-0.033333333333333	0
bin	0	0
bin	0.033333333333333	0
bin	0.066666666666667	0
bin	0.1	0
bin	0.13333333333333	0
bin	0.16666666666667	0
bin	0.2	0
bin	0.23333333333333	0
bin	0.26666666666667	0
bin	0.3	0
bin	0.33333333333333	0
bin	0.36666666666667	0
bin	0.4	0
bin	0.43333333333333	0
bin	0.46666666666667	0
bin	0.5	0
scalar net2.comp1[1].pingApp[0] 	numOutOfOrderArrivals:last 	nan
attr interpolationmode  none
attr title  "ping out-of-order arrivals, last"
scalar net2.comp1[1].pingApp[0] 	pingRxSeq:count 	0
attr interpolationmode  none
attr title  "ping rx seq, count"
scalar net2.comp1[1].pingApp[0] 	pingTxSeq:count 	0
attr interpolationmode  none
attr title  "ping tx seq, count"
scalar net2.comp1[1].pingApp[0] 	numLost:last 	nan
attr interpolationmode  none
attr title  "pings lost, last"
statistic net2.comp1[1].pingApp[0] 	rtt:histogram
field count 0
field mean nan
field stddev nan
field sum 0
field sqrsum 0
field min nan
field max nan
attr interpolationmode  none
attr title  "ping round-trip time, histogram"
attr unit  s
bin	-INF	0
bin	-0.5	0
bin	-0.46666666666667	0
bin	-0.43333333333333	0
bin	-0.4	0
bin	-0.36666666666667	0
bin	-0.33333333333333	0
bin	-0.3	0
bin	-0.26666666666667	0
bin	-0.23333333333333	0
bin	-0.2	0
bin	-0.16666666666667	0
bin	-0.13333333333333	0
bin	-0.1	0
bin	-0.066666666666667	0
bin	-0.033333333333333	0
bin	0	0
bin	0.033333333333333	0
bin	0.066666666666667	0
bin	0.1	0
bin	0.13333333333333	0
bin	0.16666666666667	0
bin	0.2	0
bin	0.23333333333333	0
bin	0.26666666666667	0
bin	0.3	0
bin	0.33333333333333	0
bin	0.36666666666667	0
bin	0.4	0
bin	0.43333333333333	0
bin	0.46666666666667	0
bin	0.5	0
